F89_301_1SYN
  PyMOL2.6          3D                             0

 59 63  0  0  0  0  0  0  0  0999 V2000
   12.1070   20.2660   31.8200 C   0  0  0  0  0  0  0  0  0  0  0  0
   13.8690   18.9970   33.0040 N   0  0  0  0  0  0  0  0  0  0  0  0
   11.1070    6.5910   36.5380 O   0  5  0  0  0  0  0  0  0  0  0  0
   16.9290   14.2140   30.6380 C   0  0  0  0  0  0  0  0  0  0  0  0
   13.2810   18.3350   30.8590 N   0  0  0  0  0  0  0  0  0  0  0  0
   12.7940   11.1640   39.9860 O   0  5  0  0  0  0  0  0  0  0  0  0
   15.3250   15.6690   29.5950 C   0  0  0  0  0  0  0  0  0  0  0  0
   18.9910   13.0500   34.1820 N   0  0  0  0  0  0  0  0  0  0  0  0
   15.1760   17.7760   34.2730 O   0  0  0  0  0  0  0  0  0  0  0  0
   17.7670   13.9050   31.7110 C   0  0  0  0  0  0  0  0  0  0  0  0
   14.5070   10.8360   37.5300 N   0  0  0  0  0  0  0  0  0  0  0  0
   15.4310    8.7150   37.6460 O   0  0  0  0  0  0  0  0  0  0  0  0
   18.3400   10.8050   34.9520 C   0  0  0  0  0  0  0  0  0  0  0  0
    9.6460    7.7460   37.6120 O   0  0  0  0  0  0  0  0  0  0  0  0
   17.4800    9.9450   35.6640 C   0  0  0  0  0  0  0  0  0  0  0  0
   11.9920   12.6720   38.6720 O   0  0  0  0  0  0  0  0  0  0  0  0
   14.1870   16.4410   29.7980 C   0  0  0  0  0  0  0  0  0  0  0  0
   16.9190   15.8370   32.9370 C   0  0  0  0  0  0  0  0  0  0  0  0
   16.9390   12.7190   35.5410 C   0  0  0  0  0  0  0  0  0  0  0  0
   14.8870   12.1420   36.9880 C   0  0  0  0  0  0  0  0  0  0  0  0
   12.5280    9.3410   37.6720 C   0  0  0  0  0  0  0  0  0  0  0  0
   11.4820    8.9490   36.6280 C   0  0  0  0  0  0  0  0  0  0  0  0
   18.7270   14.4680   33.9600 C   0  0  0  0  0  0  0  0  0  0  0  0
   13.1190   19.1680   31.9000 C   0  0  0  0  0  0  0  0  0  0  0  0
   16.0850   15.3290   30.7180 C   0  0  0  0  0  0  0  0  0  0  0  0
   17.7930   14.7380   32.8470 C   0  0  0  0  0  0  0  0  0  0  0  0
   18.0780   12.1900   34.8990 C   0  0  0  0  0  0  0  0  0  0  0  0
   16.3710   10.4980   36.3330 C   0  0  0  0  0  0  0  0  0  0  0  0
   14.1510   17.3180   30.8890 C   0  0  0  0  0  0  0  0  0  0  0  0
   16.1060   11.8480   36.2470 C   0  0  0  0  0  0  0  0  0  0  0  0
   16.0000   16.1130   31.9080 C   0  0  0  0  0  0  0  0  0  0  0  0
   14.9940   17.1220   32.0090 C   0  0  0  0  0  0  0  0  0  0  0  0
   14.7360   17.9660   33.1400 C   0  0  0  0  0  0  0  0  0  0  0  0
   15.3900    9.8680   37.1950 C   0  0  0  0  0  0  0  0  0  0  0  0
   13.0330   10.8010   37.6030 C   0  0  0  0  0  0  0  0  0  0  0  0
   10.6990    7.6760   36.9730 C   0  0  0  0  0  0  0  0  0  0  0  0
   12.5530   11.5850   38.8450 C   0  0  0  0  0  0  0  0  0  0  0  0
   11.6021   20.2296   30.8434 H   0  0  0  0  0  0  0  0  0  0  0  0
   11.3643   20.1390   32.6215 H   0  0  0  0  0  0  0  0  0  0  0  0
   12.6101   21.2373   31.9365 H   0  0  0  0  0  0  0  0  0  0  0  0
   16.9315   13.5970   29.7516 H   0  0  0  0  0  0  0  0  0  0  0  0
   15.6116   15.3437   28.6058 H   0  0  0  0  0  0  0  0  0  0  0  0
   18.3953   13.0275   31.6703 H   0  0  0  0  0  0  0  0  0  0  0  0
   19.2038   10.4017   34.4445 H   0  0  0  0  0  0  0  0  0  0  0  0
   17.6679    8.8819   35.6960 H   0  0  0  0  0  0  0  0  0  0  0  0
   13.3451   16.3657   29.1258 H   0  0  0  0  0  0  0  0  0  0  0  0
   16.9540   16.4765   33.8066 H   0  0  0  0  0  0  0  0  0  0  0  0
   16.7158   13.7744   35.4879 H   0  0  0  0  0  0  0  0  0  0  0  0
   15.0643   12.8774   37.7866 H   0  0  0  0  0  0  0  0  0  0  0  0
   14.1039   12.5543   36.3348 H   0  0  0  0  0  0  0  0  0  0  0  0
   12.0741    9.1961   38.6634 H   0  0  0  0  0  0  0  0  0  0  0  0
   13.3987    8.6843   37.5285 H   0  0  0  0  0  0  0  0  0  0  0  0
   10.7626    9.7766   36.5414 H   0  0  0  0  0  0  0  0  0  0  0  0
   12.0024    8.7789   35.6739 H   0  0  0  0  0  0  0  0  0  0  0  0
   19.6833   14.9595   33.7279 H   0  0  0  0  0  0  0  0  0  0  0  0
   18.2872   14.8799   34.8803 H   0  0  0  0  0  0  0  0  0  0  0  0
   12.6230   11.2697   36.6963 H   0  0  0  0  0  0  0  0  0  0  0  0
   13.7829   19.6556   33.7515 H   0  0  0  0  0  0  0  0  0  0  0  0
   19.0680   12.6499   33.2688 H   0  0  0  0  0  0  0  0  0  0  0  0
  1 24  1  0  0  0  0
  1 38  1  0  0  0  0
  1 39  1  0  0  0  0
  1 40  1  0  0  0  0
  2 58  1  0  0  0  0
  4 10  4  0  0  0  0
  4 25  4  0  0  0  0
  4 41  1  0  0  0  0
  7 17  4  0  0  0  0
  7 25  4  0  0  0  0
  7 42  1  0  0  0  0
  8 59  1  0  0  0  0
 10 26  4  0  0  0  0
 10 43  1  0  0  0  0
 13 15  4  0  0  0  0
 13 27  4  0  0  0  0
 13 44  1  0  0  0  0
 15 28  4  0  0  0  0
 15 45  1  0  0  0  0
 17 29  4  0  0  0  0
 17 46  1  0  0  0  0
 18 26  4  0  0  0  0
 18 31  4  0  0  0  0
 18 47  1  0  0  0  0
 19 27  4  0  0  0  0
 19 30  4  0  0  0  0
 19 48  1  0  0  0  0
 11 20  1  0  0  0  0
 20 30  1  0  0  0  0
 20 49  1  0  0  0  0
 20 50  1  0  0  0  0
 21 22  1  0  0  0  0
 21 35  1  0  0  0  0
 21 51  1  0  0  0  0
 21 52  1  0  0  0  0
 22 36  1  0  0  0  0
 22 53  1  0  0  0  0
 22 54  1  0  0  0  0
  8 23  1  0  0  0  0
 23 26  1  0  0  0  0
 23 55  1  0  0  0  0
 23 56  1  0  0  0  0
  2 24  1  0  0  0  0
  5 24  2  0  0  0  0
 25 31  4  0  0  0  0
  8 27  1  0  0  0  0
 28 30  4  0  0  0  0
 28 34  1  0  0  0  0
  5 29  1  0  0  0  0
 29 32  4  0  0  0  0
 31 32  4  0  0  0  0
 32 33  1  0  0  0  0
  2 33  1  0  0  0  0
  9 33  2  0  0  0  0
 11 34  1  0  0  0  0
 12 34  2  0  0  0  0
 11 35  1  0  0  0  0
 35 37  1  0  0  0  0
 35 57  1  0  0  0  0
  3 36  1  0  0  0  0
 14 36  2  0  0  0  0
  6 37  1  0  0  0  0
 16 37  2  0  0  0  0
M  END
$$$$
