FLP_501_1R9O
  PyMOL2.6          3D                             0

 30 31  0  0  0  0  0  0  0  0999 V2000
   10.2100   36.3010    0.8070 C   0  0  0  0  0  0  0  0  0  0  0  0
   11.8690   36.2900   -2.5550 O   0  5  0  0  0  0  0  0  0  0  0  0
    5.7330   28.9200   -3.3470 C   0  0  0  0  0  0  0  0  0  0  0  0
   10.5880   37.7400   -1.5960 O   0  0  0  0  0  0  0  0  0  0  0  0
    7.1650   28.8000   -3.4190 C   0  0  0  0  0  0  0  0  0  0  0  0
    5.1100   30.0940   -2.7940 C   0  0  0  0  0  0  0  0  0  0  0  0
    7.9960   29.9080   -2.9780 C   0  0  0  0  0  0  0  0  0  0  0  0
    5.9180   31.1860   -2.3550 C   0  0  0  0  0  0  0  0  0  0  0  0
   10.2930   32.9970   -0.6700 C   0  0  0  0  0  0  0  0  0  0  0  0
    9.4770   31.9350   -1.1840 C   0  0  0  0  0  0  0  0  0  0  0  0
    8.7720   34.6890   -1.6770 C   0  0  0  0  0  0  0  0  0  0  0  0
    7.4050   31.1310   -2.4090 C   0  0  0  0  0  0  0  0  0  0  0  0
    9.9840   34.3880   -0.9680 C   0  0  0  0  0  0  0  0  0  0  0  0
    8.2080   32.2190   -1.9230 C   0  0  0  0  0  0  0  0  0  0  0  0
    7.9400   33.6530   -2.2260 C   0  0  0  0  0  0  0  0  0  0  0  0
   10.8540   35.5880   -0.4360 C   0  0  0  0  0  0  0  0  0  0  0  0
   11.1200   36.6260   -1.6110 C   0  0  0  0  0  0  0  0  0  0  0  0
    6.8130   34.0900   -2.9120 F   0  0  0  0  0  0  0  0  0  0  0  0
   10.8588   37.1271    1.1334 H   0  0  0  0  0  0  0  0  0  0  0  0
    9.2221   36.6981    0.5306 H   0  0  0  0  0  0  0  0  0  0  0  0
   10.0979   35.5769    1.6275 H   0  0  0  0  0  0  0  0  0  0  0  0
    5.1143   28.1147   -3.7145 H   0  0  0  0  0  0  0  0  0  0  0  0
    7.6180   27.8954   -3.7970 H   0  0  0  0  0  0  0  0  0  0  0  0
    4.0345   30.1485   -2.7115 H   0  0  0  0  0  0  0  0  0  0  0  0
    9.0695   29.8328   -3.0695 H   0  0  0  0  0  0  0  0  0  0  0  0
    5.4382   32.0753   -1.9738 H   0  0  0  0  0  0  0  0  0  0  0  0
   11.1480   32.7614   -0.0537 H   0  0  0  0  0  0  0  0  0  0  0  0
    9.7849   30.9107   -1.0345 H   0  0  0  0  0  0  0  0  0  0  0  0
    8.4778   35.7207   -1.8011 H   0  0  0  0  0  0  0  0  0  0  0  0
   11.8126   35.1726   -0.0918 H   0  0  0  0  0  0  0  0  0  0  0  0
  1 16  1  0  0  0  0
  1 19  1  0  0  0  0
  1 20  1  0  0  0  0
  1 21  1  0  0  0  0
  3  5  4  0  0  0  0
  3  6  4  0  0  0  0
  3 22  1  0  0  0  0
  5  7  4  0  0  0  0
  5 23  1  0  0  0  0
  6  8  4  0  0  0  0
  6 24  1  0  0  0  0
  7 12  4  0  0  0  0
  7 25  1  0  0  0  0
  8 12  4  0  0  0  0
  8 26  1  0  0  0  0
  9 10  4  0  0  0  0
  9 13  4  0  0  0  0
  9 27  1  0  0  0  0
 10 14  4  0  0  0  0
 10 28  1  0  0  0  0
 11 13  4  0  0  0  0
 11 15  4  0  0  0  0
 11 29  1  0  0  0  0
 12 14  1  0  0  0  0
 13 16  1  0  0  0  0
 14 15  4  0  0  0  0
 15 18  1  0  0  0  0
 16 17  1  0  0  0  0
 16 30  1  0  0  0  0
  2 17  1  0  0  0  0
  4 17  2  0  0  0  0
M  END
$$$$
