ZST_600_2HV5
  PyMOL2.6          3D                             0

 40 43  0  0  0  0  0  0  0  0999 V2000
   14.9950  -10.8800   17.8280 C   0  0  0  0  0  0  0  0  0  0  0  0
   18.6110   -5.7150   12.6150 N   0  0  0  0  0  0  0  0  0  0  0  0
   14.9900   -5.9970   17.0650 O   0  5  0  0  0  0  0  0  0  0  0  0
   16.5040   -6.8360   13.4530 S   0  0  0  0  0  0  0  0  0  0  0  0
   15.3290  -11.6090   16.7030 C   0  0  0  0  0  0  0  0  0  0  0  0
   17.8930   -7.3110   16.4580 N   0  0  0  0  0  0  0  0  0  0  0  0
   17.9920   -9.9540   14.0320 O   0  0  0  0  0  0  0  0  0  0  0  0
   15.5470   -9.6570   18.0540 C   0  0  0  0  0  0  0  0  0  0  0  0
   18.1990   -8.0690   15.3360 N   0  0  0  0  0  0  0  0  0  0  0  0
   14.9100   -5.6390   19.2330 O   0  0  0  0  0  0  0  0  0  0  0  0
   16.2030  -11.1010   15.7970 C   0  0  0  0  0  0  0  0  0  0  0  0
   15.1920   -4.3990   10.5830 C   0  0  0  0  0  0  0  0  0  0  0  0
   15.0850   -5.3390   11.5680 C   0  0  0  0  0  0  0  0  0  0  0  0
   17.5920   -4.2360   10.8310 C   0  0  0  0  0  0  0  0  0  0  0  0
   16.7530   -6.8810   18.4570 C   0  0  0  0  0  0  0  0  0  0  0  0
   19.1540   -7.3550   14.4790 C   0  0  0  0  0  0  0  0  0  0  0  0
   16.4170   -3.8740   10.2300 C   0  0  0  0  0  0  0  0  0  0  0  0
   16.4560   -9.0880   17.1530 C   0  0  0  0  0  0  0  0  0  0  0  0
   16.7750   -9.8380   16.0140 C   0  0  0  0  0  0  0  0  0  0  0  0
   16.2890   -5.7090   12.1920 C   0  0  0  0  0  0  0  0  0  0  0  0
   17.5390   -5.1880   11.8500 C   0  0  0  0  0  0  0  0  0  0  0  0
   17.0780   -7.8000   17.3100 C   0  0  0  0  0  0  0  0  0  0  0  0
   18.2270   -6.5890   13.4910 C   0  0  0  0  0  0  0  0  0  0  0  0
   17.7160   -9.3260   15.0530 C   0  0  0  0  0  0  0  0  0  0  0  0
   15.4340   -6.2000   18.2400 C   0  0  0  0  0  0  0  0  0  0  0  0
   16.4440   -2.8420    9.1320 C   0  0  0  0  0  0  0  0  0  0  0  0
   15.6460   -1.8210    9.4710 F   0  0  0  0  0  0  0  0  0  0  0  0
   16.1220   -3.2160    7.9300 F   0  0  0  0  0  0  0  0  0  0  0  0
   17.6230   -2.2420    9.0320 F   0  0  0  0  0  0  0  0  0  0  0  0
   14.2876  -11.2855   18.5362 H   0  0  0  0  0  0  0  0  0  0  0  0
   14.8940  -12.5847   16.5441 H   0  0  0  0  0  0  0  0  0  0  0  0
   15.2784   -9.1132   18.9476 H   0  0  0  0  0  0  0  0  0  0  0  0
   16.4571  -11.6666   14.9127 H   0  0  0  0  0  0  0  0  0  0  0  0
   14.3024   -4.0614   10.0722 H   0  0  0  0  0  0  0  0  0  0  0  0
   14.1358   -5.7705   11.8495 H   0  0  0  0  0  0  0  0  0  0  0  0
   18.5312   -3.7985   10.5261 H   0  0  0  0  0  0  0  0  0  0  0  0
   16.7036   -7.4699   19.3848 H   0  0  0  0  0  0  0  0  0  0  0  0
   17.5409   -6.1178   18.5386 H   0  0  0  0  0  0  0  0  0  0  0  0
   19.8263   -8.0483   13.9525 H   0  0  0  0  0  0  0  0  0  0  0  0
   19.7875   -6.6679   15.0592 H   0  0  0  0  0  0  0  0  0  0  0  0
  1  5  4  0  0  0  0
  1  8  4  0  0  0  0
  1 30  1  0  0  0  0
  5 11  4  0  0  0  0
  5 31  1  0  0  0  0
  6  9  1  0  0  0  0
  8 18  4  0  0  0  0
  8 32  1  0  0  0  0
 11 19  4  0  0  0  0
 11 33  1  0  0  0  0
 12 13  4  0  0  0  0
 12 17  4  0  0  0  0
 12 34  1  0  0  0  0
 13 20  4  0  0  0  0
 13 35  1  0  0  0  0
 14 17  4  0  0  0  0
 14 21  4  0  0  0  0
 14 36  1  0  0  0  0
 15 22  1  0  0  0  0
 15 25  1  0  0  0  0
 15 37  1  0  0  0  0
 15 38  1  0  0  0  0
  9 16  1  0  0  0  0
 16 23  1  0  0  0  0
 16 39  1  0  0  0  0
 16 40  1  0  0  0  0
 17 26  1  0  0  0  0
 18 19  4  0  0  0  0
 18 22  1  0  0  0  0
 19 24  1  0  0  0  0
  4 20  1  0  0  0  0
 20 21  4  0  0  0  0
  2 21  1  0  0  0  0
  6 22  2  0  0  0  0
  2 23  2  0  0  0  0
  4 23  1  0  0  0  0
  7 24  2  0  0  0  0
  9 24  1  0  0  0  0
  3 25  1  0  0  0  0
 10 25  2  0  0  0  0
 26 27  1  0  0  0  0
 26 28  1  0  0  0  0
 26 29  1  0  0  0  0
M  END
$$$$
