FAP_A1300_1H00
  PyMOL2.6          3D                             0

 54 56  0  0  0  0  0  0  0  0999 V2000
    6.4420   19.8810    6.6120 C   0  0  0  0  0  0  0  0  0  0  0  0
    1.3960   32.4840    7.3450 N   0  0  0  0  0  0  0  0  0  0  0  0
    6.2510   22.9720    8.7540 O   0  0  0  0  0  0  0  0  0  0  0  0
    4.8050   19.2050    8.2910 C   0  0  0  0  0  0  0  0  0  0  0  0
   -0.5690   32.5630    8.6890 N   0  0  0  0  0  0  0  0  0  0  0  0
    5.2070   25.3980    7.4400 O   0  0  0  0  0  0  0  0  0  0  0  0
   -1.7340   27.4480   12.7920 C   0  0  0  0  0  0  0  0  0  0  0  0
    2.7940   30.5570    7.1260 N   0  0  0  0  0  0  0  0  0  0  0  0
   -2.8640   27.9370   12.0910 C   0  0  0  0  0  0  0  0  0  0  0  0
   -1.3980   30.7320    9.9800 N   0  0  0  0  0  0  0  0  0  0  0  0
   -0.4620   28.0280   12.5840 C   0  0  0  0  0  0  0  0  0  0  0  0
    5.6170   20.3410    7.7610 N   0  3  0  0  0  0  0  0  0  0  0  0
    3.6480   28.5750    8.4680 C   0  0  0  0  0  0  0  0  0  0  0  0
    3.7950   28.5970    6.0100 C   0  0  0  0  0  0  0  0  0  0  0  0
    4.2480   27.2990    8.5010 C   0  0  0  0  0  0  0  0  0  0  0  0
    4.3990   27.3140    6.0420 C   0  0  0  0  0  0  0  0  0  0  0  0
    0.7130   30.5170    8.5790 C   0  0  0  0  0  0  0  0  0  0  0  0
    0.3260   33.1000    7.8560 C   0  0  0  0  0  0  0  0  0  0  0  0
    4.7670   21.5370    7.4440 C   0  0  0  0  0  0  0  0  0  0  0  0
    4.4640   24.1590    7.6170 C   0  0  0  0  0  0  0  0  0  0  0  0
    3.4120   29.2380    7.2190 C   0  0  0  0  0  0  0  0  0  0  0  0
    4.6280   26.6560    7.2930 C   0  0  0  0  0  0  0  0  0  0  0  0
   -2.7310   29.0150   11.1770 C   0  0  0  0  0  0  0  0  0  0  0  0
   -0.3090   29.1050   11.6740 C   0  0  0  0  0  0  0  0  0  0  0  0
    1.6140   31.1970    7.6890 C   0  0  0  0  0  0  0  0  0  0  0  0
   -0.4010   31.2770    9.0660 C   0  0  0  0  0  0  0  0  0  0  0  0
   -1.4540   29.6170   10.9470 C   0  0  0  0  0  0  0  0  0  0  0  0
    5.3960   22.9350    7.6620 C   0  0  0  0  0  0  0  0  0  0  0  0
   -3.8490   29.4590   10.5210 F   0  0  0  0  0  0  0  0  0  0  0  0
    0.9450   29.6210   11.5160 F   0  0  0  0  0  0  0  0  0  0  0  0
    7.0370   20.7223    6.2270 H   0  0  0  0  0  0  0  0  0  0  0  0
    7.1157   19.0769    6.9432 H   0  0  0  0  0  0  0  0  0  0  0  0
    5.7835   19.5033    5.8160 H   0  0  0  0  0  0  0  0  0  0  0  0
    4.1978   19.5523    9.1399 H   0  0  0  0  0  0  0  0  0  0  0  0
    4.1435   18.8260    7.4980 H   0  0  0  0  0  0  0  0  0  0  0  0
    5.4757   18.3997    8.6252 H   0  0  0  0  0  0  0  0  0  0  0  0
   -1.8450   26.6293   13.4876 H   0  0  0  0  0  0  0  0  0  0  0  0
   -3.8323   27.4869   12.2530 H   0  0  0  0  0  0  0  0  0  0  0  0
    0.3962   27.6499   13.1197 H   0  0  0  0  0  0  0  0  0  0  0  0
    3.3638   29.0569    9.3918 H   0  0  0  0  0  0  0  0  0  0  0  0
    3.6256   29.0885    5.0634 H   0  0  0  0  0  0  0  0  0  0  0  0
    4.4191   26.8092    9.4482 H   0  0  0  0  0  0  0  0  0  0  0  0
    4.6872   26.8317    5.1196 H   0  0  0  0  0  0  0  0  0  0  0  0
    0.8671   29.4873    8.8659 H   0  0  0  0  0  0  0  0  0  0  0  0
    0.1703   34.1292    7.5682 H   0  0  0  0  0  0  0  0  0  0  0  0
    3.8801   21.4803    8.0922 H   0  0  0  0  0  0  0  0  0  0  0  0
    4.5016   21.4679    6.3787 H   0  0  0  0  0  0  0  0  0  0  0  0
    3.7680   24.0415    6.7733 H   0  0  0  0  0  0  0  0  0  0  0  0
    3.9076   24.2137    8.5643 H   0  0  0  0  0  0  0  0  0  0  0  0
    5.9860   23.0557    6.7415 H   0  0  0  0  0  0  0  0  0  0  0  0
    3.3077   31.1726    6.5284 H   0  0  0  0  0  0  0  0  0  0  0  0
   -2.2586   31.2400    9.9428 H   0  0  0  0  0  0  0  0  0  0  0  0
    6.2464   20.6506    8.4738 H   0  0  0  0  0  0  0  0  0  0  0  0
    6.6102   23.8466    8.8460 H   0  0  0  0  0  0  0  0  0  0  0  0
  1 12  1  0  0  0  0
  1 31  1  0  0  0  0
  1 32  1  0  0  0  0
  1 33  1  0  0  0  0
  3 54  1  0  0  0  0
  4 12  1  0  0  0  0
  4 34  1  0  0  0  0
  4 35  1  0  0  0  0
  4 36  1  0  0  0  0
  7  9  4  0  0  0  0
  7 11  4  0  0  0  0
  7 37  1  0  0  0  0
  8 51  1  0  0  0  0
  9 23  4  0  0  0  0
  9 38  1  0  0  0  0
 10 52  1  0  0  0  0
 11 24  4  0  0  0  0
 11 39  1  0  0  0  0
 12 53  1  0  0  0  0
 13 15  4  0  0  0  0
 13 21  4  0  0  0  0
 13 40  1  0  0  0  0
 14 16  4  0  0  0  0
 14 21  4  0  0  0  0
 14 41  1  0  0  0  0
 15 22  4  0  0  0  0
 15 42  1  0  0  0  0
 16 22  4  0  0  0  0
 16 43  1  0  0  0  0
 17 25  4  0  0  0  0
 17 26  4  0  0  0  0
 17 44  1  0  0  0  0
  2 18  4  0  0  0  0
  5 18  4  0  0  0  0
 18 45  1  0  0  0  0
 12 19  1  0  0  0  0
 19 28  1  0  0  0  0
 19 46  1  0  0  0  0
 19 47  1  0  0  0  0
  6 20  1  0  0  0  0
 20 28  1  0  0  0  0
 20 48  1  0  0  0  0
 20 49  1  0  0  0  0
  8 21  1  0  0  0  0
  6 22  1  0  0  0  0
 23 27  4  0  0  0  0
 23 29  1  0  0  0  0
 24 27  4  0  0  0  0
 24 30  1  0  0  0  0
  2 25  4  0  0  0  0
  8 25  1  0  0  0  0
  5 26  4  0  0  0  0
 10 26  1  0  0  0  0
 10 27  1  0  0  0  0
  3 28  1  0  0  0  0
 28 50  1  0  0  0  0
M  END
$$$$
