JRZ_A1203_3NY8
  PyMOL2.6          3D                             0

 48 49  0  0  0  0  0  0  0  0999 V2000
   -0.4000    0.4450   48.8930 C   0  0  0  0  0  0  0  0  0  0  0  0
    3.4010    8.2360   53.1020 N   0  3  0  0  0  0  0  0  0  0  0  0
    3.5170    8.3590   50.4050 O   0  0  0  0  0  0  0  0  0  0  0  0
    4.6070    8.8140   55.1190 C   0  0  0  0  0  0  0  0  0  0  0  0
    3.1040    4.7170   50.4780 O   0  0  0  0  0  0  0  0  0  0  0  0
    2.1430    8.7230   55.1300 C   0  0  0  0  0  0  0  0  0  0  0  0
    1.4650    7.0340   52.3050 C   0  0  0  0  0  0  0  0  0  0  0  0
    0.6590    2.6950   48.5030 C   0  0  0  0  0  0  0  0  0  0  0  0
    1.4930    3.7430   48.8900 C   0  0  0  0  0  0  0  0  0  0  0  0
    1.8300    1.0520   52.7400 C   0  0  0  0  0  0  0  0  0  0  0  0
    1.2850    0.3310   51.5360 C   0  0  0  0  0  0  0  0  0  0  0  0
    2.7620    2.1350   52.2400 C   0  0  0  0  0  0  0  0  0  0  0  0
    2.9490    6.0530   49.9860 C   0  0  0  0  0  0  0  0  0  0  0  0
    0.5450    1.5650   49.3050 C   0  0  0  0  0  0  0  0  0  0  0  0
    2.2150    3.6580   50.0900 C   0  0  0  0  0  0  0  0  0  0  0  0
    1.2740    1.4540   50.4820 C   0  0  0  0  0  0  0  0  0  0  0  0
    2.1230    2.4980   50.8760 C   0  0  0  0  0  0  0  0  0  0  0  0
    3.4000    8.0860   54.5460 C   0  0  0  0  0  0  0  0  0  0  0  0
    2.9860    7.0360   52.3810 C   0  0  0  0  0  0  0  0  0  0  0  0
    3.6180    7.0650   50.9570 C   0  0  0  0  0  0  0  0  0  0  0  0
    0.1413   -0.2811   48.2687 H   0  0  0  0  0  0  0  0  0  0  0  0
   -0.7845   -0.0593   49.7918 H   0  0  0  0  0  0  0  0  0  0  0  0
   -1.2399    0.8660   48.3209 H   0  0  0  0  0  0  0  0  0  0  0  0
    5.5290    8.3727   54.7126 H   0  0  0  0  0  0  0  0  0  0  0  0
    4.5578    9.8779   54.8441 H   0  0  0  0  0  0  0  0  0  0  0  0
    4.6068    8.7179   56.2148 H   0  0  0  0  0  0  0  0  0  0  0  0
    1.2537    8.2135   54.7306 H   0  0  0  0  0  0  0  0  0  0  0  0
    2.1589    8.6275   56.2257 H   0  0  0  0  0  0  0  0  0  0  0  0
    2.1100    9.7876   54.8550 H   0  0  0  0  0  0  0  0  0  0  0  0
    1.0466    7.0134   53.3221 H   0  0  0  0  0  0  0  0  0  0  0  0
    1.1228    7.9416   51.7863 H   0  0  0  0  0  0  0  0  0  0  0  0
    1.1269    6.1456   51.7515 H   0  0  0  0  0  0  0  0  0  0  0  0
    0.1015    2.7609   47.5803 H   0  0  0  0  0  0  0  0  0  0  0  0
    1.5833    4.6200   48.2663 H   0  0  0  0  0  0  0  0  0  0  0  0
    1.0075    1.4980   53.3184 H   0  0  0  0  0  0  0  0  0  0  0  0
    2.3777    0.3498   53.3857 H   0  0  0  0  0  0  0  0  0  0  0  0
    1.9206   -0.5149   51.2353 H   0  0  0  0  0  0  0  0  0  0  0  0
    0.2804   -0.0791   51.7167 H   0  0  0  0  0  0  0  0  0  0  0  0
    2.7991    2.9970   52.9224 H   0  0  0  0  0  0  0  0  0  0  0  0
    3.7952    1.7740   52.1302 H   0  0  0  0  0  0  0  0  0  0  0  0
    1.8772    6.2859   49.9026 H   0  0  0  0  0  0  0  0  0  0  0  0
    3.4243    6.1319   48.9971 H   0  0  0  0  0  0  0  0  0  0  0  0
    3.4322    7.0157   54.7979 H   0  0  0  0  0  0  0  0  0  0  0  0
    3.3224    6.1223   52.8928 H   0  0  0  0  0  0  0  0  0  0  0  0
    4.6730    6.7773   51.0760 H   0  0  0  0  0  0  0  0  0  0  0  0
    2.7666    8.9725   52.8673 H   0  0  0  0  0  0  0  0  0  0  0  0
    4.3319    8.4623   52.8154 H   0  0  0  0  0  0  0  0  0  0  0  0
    3.9234    8.9865   50.9912 H   0  0  0  0  0  0  0  0  0  0  0  0
  1 14  1  0  0  0  0
  1 21  1  0  0  0  0
  1 22  1  0  0  0  0
  1 23  1  0  0  0  0
  2 46  1  0  0  0  0
  2 47  1  0  0  0  0
  3 48  1  0  0  0  0
  4 18  1  0  0  0  0
  4 24  1  0  0  0  0
  4 25  1  0  0  0  0
  4 26  1  0  0  0  0
  6 18  1  0  0  0  0
  6 27  1  0  0  0  0
  6 28  1  0  0  0  0
  6 29  1  0  0  0  0
  7 19  1  0  0  0  0
  7 30  1  0  0  0  0
  7 31  1  0  0  0  0
  7 32  1  0  0  0  0
  8  9  4  0  0  0  0
  8 14  4  0  0  0  0
  8 33  1  0  0  0  0
  9 15  4  0  0  0  0
  9 34  1  0  0  0  0
 10 11  1  0  0  0  0
 10 12  1  0  0  0  0
 10 35  1  0  0  0  0
 10 36  1  0  0  0  0
 11 16  1  0  0  0  0
 11 37  1  0  0  0  0
 11 38  1  0  0  0  0
 12 17  1  0  0  0  0
 12 39  1  0  0  0  0
 12 40  1  0  0  0  0
  5 13  1  0  0  0  0
 13 20  1  0  0  0  0
 13 41  1  0  0  0  0
 13 42  1  0  0  0  0
 14 16  4  0  0  0  0
  5 15  1  0  0  0  0
 15 17  4  0  0  0  0
 16 17  4  0  0  0  0
  2 18  1  0  0  0  0
 18 43  1  0  0  0  0
  2 19  1  0  0  0  0
 19 20  1  0  0  0  0
 19 44  1  0  0  0  0
  3 20  1  0  0  0  0
 20 45  1  0  0  0  0
M  END
$$$$
