547_201_2OF2
  PyMOL2.6          3D                             0

 58 62  0  0  0  0  0  0  0  0999 V2000
   27.0370   41.1890   86.2990 C   0  0  0  0  0  0  0  0  0  0  0  0
   24.6110   34.9970   82.3530 N   0  0  0  0  0  0  0  0  0  0  0  0
   26.9560   35.7210   82.4870 O   0  0  0  0  0  0  0  0  0  0  0  0
   31.8890   37.3710   82.7800 C   0  0  0  0  0  0  0  0  0  0  0  0
   23.3110   43.8450   85.3400 N   0  3  0  0  0  0  0  0  0  0  0  0
   27.1840   41.2830   84.8650 C   0  0  0  0  0  0  0  0  0  0  0  0
   23.6700   38.2800   84.7910 N   0  0  0  0  0  0  0  0  0  0  0  0
   26.7220   39.9280   86.9320 C   0  0  0  0  0  0  0  0  0  0  0  0
   23.0260   41.0020   85.6340 N   0  3  0  0  0  0  0  0  0  0  0  0
   31.2050   36.4270   81.9230 C   0  0  0  0  0  0  0  0  0  0  0  0
   31.1680   38.1210   83.7630 C   0  0  0  0  0  0  0  0  0  0  0  0
   27.0220   40.1120   84.0560 C   0  0  0  0  0  0  0  0  0  0  0  0
   26.5620   38.7590   86.1200 C   0  0  0  0  0  0  0  0  0  0  0  0
   29.7860   36.2420   82.0450 C   0  0  0  0  0  0  0  0  0  0  0  0
   29.7640   37.9300   83.8800 C   0  0  0  0  0  0  0  0  0  0  0  0
   22.9540   36.2980   83.5210 C   0  0  0  0  0  0  0  0  0  0  0  0
   23.3130   35.2040   82.6920 C   0  0  0  0  0  0  0  0  0  0  0  0
   24.0340   43.1270   86.4310 C   0  0  0  0  0  0  0  0  0  0  0  0
   23.0980   42.9700   84.1440 C   0  0  0  0  0  0  0  0  0  0  0  0
   23.2340   41.8710   86.8240 C   0  0  0  0  0  0  0  0  0  0  0  0
   22.2740   41.7390   84.5800 C   0  0  0  0  0  0  0  0  0  0  0  0
   22.3130   38.5930   85.2200 C   0  0  0  0  0  0  0  0  0  0  0  0
   22.2460   39.8340   86.1150 C   0  0  0  0  0  0  0  0  0  0  0  0
   26.7120   38.8560   84.6820 C   0  0  0  0  0  0  0  0  0  0  0  0
   29.0530   36.9920   83.0270 C   0  0  0  0  0  0  0  0  0  0  0  0
   23.9760   37.2040   83.9840 C   0  0  0  0  0  0  0  0  0  0  0  0
   25.3670   36.9590   83.5920 C   0  0  0  0  0  0  0  0  0  0  0  0
   26.5570   37.6280   83.8630 C   0  0  0  0  0  0  0  0  0  0  0  0
   27.5720   36.7840   83.1180 C   0  0  0  0  0  0  0  0  0  0  0  0
   25.6330   35.8390   82.7690 C   0  0  0  0  0  0  0  0  0  0  0  0
   27.1642   42.0728   86.9065 H   0  0  0  0  0  0  0  0  0  0  0  0
   32.9549   37.5112   82.6769 H   0  0  0  0  0  0  0  0  0  0  0  0
   27.4151   42.2323   84.4047 H   0  0  0  0  0  0  0  0  0  0  0  0
   26.6087   39.8681   88.0044 H   0  0  0  0  0  0  0  0  0  0  0  0
   31.7620   35.8610   81.1910 H   0  0  0  0  0  0  0  0  0  0  0  0
   31.6821   38.8206   84.4054 H   0  0  0  0  0  0  0  0  0  0  0  0
   27.1320   40.1725   82.9833 H   0  0  0  0  0  0  0  0  0  0  0  0
   26.3304   37.8087   86.5779 H   0  0  0  0  0  0  0  0  0  0  0  0
   29.2726   35.5426   81.4018 H   0  0  0  0  0  0  0  0  0  0  0  0
   29.2138   38.4940   84.6186 H   0  0  0  0  0  0  0  0  0  0  0  0
   21.9228   36.4511   83.8033 H   0  0  0  0  0  0  0  0  0  0  0  0
   22.5494   34.5322   82.3287 H   0  0  0  0  0  0  0  0  0  0  0  0
   24.1349   43.7883   87.3042 H   0  0  0  0  0  0  0  0  0  0  0  0
   25.0338   42.8325   86.0794 H   0  0  0  0  0  0  0  0  0  0  0  0
   24.0690   42.6454   83.7418 H   0  0  0  0  0  0  0  0  0  0  0  0
   22.5539   43.5267   83.3668 H   0  0  0  0  0  0  0  0  0  0  0  0
   23.7916   41.3107   87.5890 H   0  0  0  0  0  0  0  0  0  0  0  0
   22.2563   42.1751   87.2261 H   0  0  0  0  0  0  0  0  0  0  0  0
   21.3028   42.0666   84.9793 H   0  0  0  0  0  0  0  0  0  0  0  0
   22.1078   41.0800   83.7151 H   0  0  0  0  0  0  0  0  0  0  0  0
   21.9215   37.7351   85.7864 H   0  0  0  0  0  0  0  0  0  0  0  0
   21.6999   38.7768   84.3254 H   0  0  0  0  0  0  0  0  0  0  0  0
   21.1918   40.1414   86.1795 H   0  0  0  0  0  0  0  0  0  0  0  0
   22.6409   39.5539   87.1027 H   0  0  0  0  0  0  0  0  0  0  0  0
   22.4196   44.1385   85.6853 H   0  0  0  0  0  0  0  0  0  0  0  0
   23.8534   44.6385   85.0641 H   0  0  0  0  0  0  0  0  0  0  0  0
   23.9750   39.0843   84.2810 H   0  0  0  0  0  0  0  0  0  0  0  0
   23.8944   40.7173   85.2281 H   0  0  0  0  0  0  0  0  0  0  0  0
  1  6  4  0  0  0  0
  1  8  4  0  0  0  0
  1 31  1  0  0  0  0
  4 10  4  0  0  0  0
  4 11  4  0  0  0  0
  4 32  1  0  0  0  0
  5 55  1  0  0  0  0
  5 56  1  0  0  0  0
  6 12  4  0  0  0  0
  6 33  1  0  0  0  0
  7 57  1  0  0  0  0
  8 13  4  0  0  0  0
  8 34  1  0  0  0  0
  9 58  1  0  0  0  0
 10 14  4  0  0  0  0
 10 35  1  0  0  0  0
 11 15  4  0  0  0  0
 11 36  1  0  0  0  0
 12 24  4  0  0  0  0
 12 37  1  0  0  0  0
 13 24  4  0  0  0  0
 13 38  1  0  0  0  0
 14 25  4  0  0  0  0
 14 39  1  0  0  0  0
 15 25  4  0  0  0  0
 15 40  1  0  0  0  0
 16 17  4  0  0  0  0
 16 26  4  0  0  0  0
 16 41  1  0  0  0  0
  2 17  4  0  0  0  0
 17 42  1  0  0  0  0
  5 18  1  0  0  0  0
 18 20  1  0  0  0  0
 18 43  1  0  0  0  0
 18 44  1  0  0  0  0
  5 19  1  0  0  0  0
 19 21  1  0  0  0  0
 19 45  1  0  0  0  0
 19 46  1  0  0  0  0
  9 20  1  0  0  0  0
 20 47  1  0  0  0  0
 20 48  1  0  0  0  0
  9 21  1  0  0  0  0
 21 49  1  0  0  0  0
 21 50  1  0  0  0  0
  7 22  1  0  0  0  0
 22 23  1  0  0  0  0
 22 51  1  0  0  0  0
 22 52  1  0  0  0  0
  9 23  1  0  0  0  0
 23 53  1  0  0  0  0
 23 54  1  0  0  0  0
 24 28  1  0  0  0  0
 25 29  1  0  0  0  0
  7 26  1  0  0  0  0
 26 27  4  0  0  0  0
 27 28  1  0  0  0  0
 27 30  4  0  0  0  0
 28 29  2  0  0  0  0
  3 29  1  0  0  0  0
  2 30  4  0  0  0  0
  3 30  1  0  0  0  0
M  END
$$$$
