xtal-lig.mol2
  PyMOL2.6          3D                             0

 40 43  0  0  0  0  0  0  0  0999 V2000
  -10.9920   -8.7960   60.6170 C   0  0  0  0  0  0  0  0  0  0  0  0
   -9.4200   -9.5440   56.6440 N   0  3  0  0  0  0  0  0  0  0  0  0
   -6.4920   -4.7390   50.9840 O   0  0  0  0  0  0  0  0  0  0  0  0
  -11.2410   -8.2970   61.8890 C   0  0  0  0  0  0  0  0  0  0  0  0
   -8.5850   -8.8570   54.5780 N   0  3  0  0  0  0  0  0  0  0  0  0
  -11.9840   -7.1330   62.0450 C   0  0  0  0  0  0  0  0  0  0  0  0
   -8.8330   -7.3590   56.3580 N   0  3  0  0  0  0  0  0  0  0  0  0
  -12.4760   -6.4690   60.9280 C   0  0  0  0  0  0  0  0  0  0  0  0
   -8.2660   -5.1250   56.1560 N   0  3  0  0  0  0  0  0  0  0  0  0
  -12.2300   -6.9690   59.6570 C   0  0  0  0  0  0  0  0  0  0  0  0
   -7.9810   -6.5820   54.3090 N   0  0  0  0  0  0  0  0  0  0  0  0
  -11.4920   -8.1350   59.5010 C   0  0  0  0  0  0  0  0  0  0  0  0
   -7.5250   -5.8520   53.4280 N   0  0  0  0  0  0  0  0  0  0  0  0
  -11.2080   -8.6770   58.1010 C   0  0  0  0  0  0  0  0  0  0  0  0
   -7.6760   -7.8290   52.5440 N   0  3  0  0  0  0  0  0  0  0  0  0
   -9.7460   -9.1040   58.0060 C   0  0  0  0  0  0  0  0  0  0  0  0
   -8.9530   -8.5930   55.8420 C   0  0  0  0  0  0  0  0  0  0  0  0
   -8.3650   -6.3420   55.6260 C   0  0  0  0  0  0  0  0  0  0  0  0
   -8.1040   -7.8740   53.8000 C   0  0  0  0  0  0  0  0  0  0  0  0
   -7.3130   -6.5650   52.3200 C   0  0  0  0  0  0  0  0  0  0  0  0
   -6.8090   -6.0540   51.1310 C   0  0  0  0  0  0  0  0  0  0  0  0
   -6.5540   -6.6880   49.9910 C   0  0  0  0  0  0  0  0  0  0  0  0
   -6.0810   -5.7960   49.1210 C   0  0  0  0  0  0  0  0  0  0  0  0
   -6.0340   -4.5980   49.7030 C   0  0  0  0  0  0  0  0  0  0  0  0
  -10.4100   -9.6975   60.4949 H   0  0  0  0  0  0  0  0  0  0  0  0
  -10.8574   -8.8134   62.7565 H   0  0  0  0  0  0  0  0  0  0  0  0
  -12.1789   -6.7448   63.0338 H   0  0  0  0  0  0  0  0  0  0  0  0
  -13.0506   -5.5626   61.0491 H   0  0  0  0  0  0  0  0  0  0  0  0
  -12.6123   -6.4515   58.7896 H   0  0  0  0  0  0  0  0  0  0  0  0
  -11.4096   -7.8926   57.3567 H   0  0  0  0  0  0  0  0  0  0  0  0
  -11.8562   -9.5439   57.9054 H   0  0  0  0  0  0  0  0  0  0  0  0
   -9.5689   -9.9356   58.7039 H   0  0  0  0  0  0  0  0  0  0  0  0
   -9.1048   -8.2503   58.2705 H   0  0  0  0  0  0  0  0  0  0  0  0
  -10.2578   -9.9031   56.2327 H   0  0  0  0  0  0  0  0  0  0  0  0
   -8.5420   -4.9687   57.1044 H   0  0  0  0  0  0  0  0  0  0  0  0
   -7.9157   -4.3670   55.6058 H   0  0  0  0  0  0  0  0  0  0  0  0
   -7.3416   -4.8740   53.5278 H   0  0  0  0  0  0  0  0  0  0  0  0
   -6.7038   -7.7409   49.8028 H   0  0  0  0  0  0  0  0  0  0  0  0
   -5.7830   -6.0101   48.1052 H   0  0  0  0  0  0  0  0  0  0  0  0
   -5.6951   -3.6804   49.2452 H   0  0  0  0  0  0  0  0  0  0  0  0
  1  4  4  0  0  0  0
  1 12  4  0  0  0  0
  1 25  1  0  0  0  0
  2 17  2  0  0  0  0
  2 34  1  0  0  0  0
  4  6  4  0  0  0  0
  4 26  1  0  0  0  0
  5 19  2  0  0  0  0
  6  8  4  0  0  0  0
  6 27  1  0  0  0  0
  7 18  2  0  0  0  0
  8 10  4  0  0  0  0
  8 28  1  0  0  0  0
  9 35  1  0  0  0  0
  9 36  1  0  0  0  0
 10 12  4  0  0  0  0
 10 29  1  0  0  0  0
 11 13  2  0  0  0  0
 11 19  2  0  0  0  0
 12 14  1  0  0  0  0
 13 20  2  0  0  0  0
 13 37  1  0  0  0  0
 14 16  1  0  0  0  0
 14 30  1  0  0  0  0
 14 31  1  0  0  0  0
 15 20  2  0  0  0  0
  2 16  1  0  0  0  0
 16 32  1  0  0  0  0
 16 33  1  0  0  0  0
  5 17  2  0  0  0  0
  7 17  2  0  0  0  0
  9 18  2  0  0  0  0
 11 18  2  0  0  0  0
 15 19  2  0  0  0  0
 20 21  1  0  0  0  0
  3 21  1  0  0  0  0
 21 22  2  0  0  0  0
 22 23  1  0  0  0  0
 22 38  1  0  0  0  0
 23 24  2  0  0  0  0
 23 39  1  0  0  0  0
  3 24  1  0  0  0  0
 24 40  1  0  0  0  0
M  END
$$$$
