CQW_999_3CQW
  PyMOL2.6          3D                             0

 30 33  0  0  0  0  0  0  0  0999 V2000
    2.9290    1.5050   15.5760 C   0  0  0  0  0  0  0  0  0  0  0  0
    2.4620    2.7910   15.5040 N   0  0  0  0  0  0  0  0  0  0  0  0
    8.1940    2.0980   21.1470 C   0  0  0  0  0  0  0  0  0  0  0  0
    7.6210    1.4130   20.1620 N   0  0  0  0  0  0  0  0  0  0  0  0
    4.6600    5.6530   16.1330 C   0  0  0  0  0  0  0  0  0  0  0  0
    8.5560    3.3120   20.6860 N   0  0  0  0  0  0  0  0  0  0  0  0
    8.4480    4.4160   18.3160 C   0  0  0  0  0  0  0  0  0  0  0  0
    3.5360    4.9980   15.8130 N   0  0  0  0  0  0  0  0  0  0  0  0
    8.2690    3.8790   16.8780 C   0  0  0  0  0  0  0  0  0  0  0  0
    5.7690    4.9660   16.3990 N   0  0  0  0  0  0  0  0  0  0  0  0
    7.1640    1.8790   17.6360 C   0  0  0  0  0  0  0  0  0  0  0  0
    7.0580    3.0390   16.7200 N   0  0  0  0  0  0  0  0  0  0  0  0
    4.2380    1.4870   15.8800 C   0  0  0  0  0  0  0  0  0  0  0  0
    8.1540    3.3920   19.3700 C   0  0  0  0  0  0  0  0  0  0  0  0
    7.5980    2.2150   19.0420 C   0  0  0  0  0  0  0  0  0  0  0  0
    4.6550    2.8970   16.0700 C   0  0  0  0  0  0  0  0  0  0  0  0
    3.5050    3.6640   15.7790 C   0  0  0  0  0  0  0  0  0  0  0  0
    5.8100    3.6280   16.4240 C   0  0  0  0  0  0  0  0  0  0  0  0
    5.1890    0.0340   16.0180 Cl  0  0  0  0  0  0  0  0  0  0  0  0
    2.3263    0.6242   15.4107 H   0  0  0  0  0  0  0  0  0  0  0  0
    8.3451    1.7395   22.1545 H   0  0  0  0  0  0  0  0  0  0  0  0
    4.6665    6.7322   16.1750 H   0  0  0  0  0  0  0  0  0  0  0  0
    9.4919    4.7420   18.4343 H   0  0  0  0  0  0  0  0  0  0  0  0
    7.7588    5.2618   18.4559 H   0  0  0  0  0  0  0  0  0  0  0  0
    8.1850    4.7381   16.1962 H   0  0  0  0  0  0  0  0  0  0  0  0
    9.1484    3.2686   16.6251 H   0  0  0  0  0  0  0  0  0  0  0  0
    7.9070    1.1866   17.2135 H   0  0  0  0  0  0  0  0  0  0  0  0
    6.1713    1.4091   17.6961 H   0  0  0  0  0  0  0  0  0  0  0  0
    1.5225    3.0572   15.2884 H   0  0  0  0  0  0  0  0  0  0  0  0
    7.2685    0.4792   20.2234 H   0  0  0  0  0  0  0  0  0  0  0  0
  1  2  1  0  0  0  0
  1 13  2  0  0  0  0
  1 20  1  0  0  0  0
  2 29  1  0  0  0  0
  3  4  1  0  0  0  0
  3  6  2  0  0  0  0
  3 21  1  0  0  0  0
  4 30  1  0  0  0  0
  5  8  4  0  0  0  0
  5 10  4  0  0  0  0
  5 22  1  0  0  0  0
  7  9  1  0  0  0  0
  7 14  1  0  0  0  0
  7 23  1  0  0  0  0
  7 24  1  0  0  0  0
  9 12  1  0  0  0  0
  9 25  1  0  0  0  0
  9 26  1  0  0  0  0
 11 12  1  0  0  0  0
 11 15  1  0  0  0  0
 11 27  1  0  0  0  0
 11 28  1  0  0  0  0
 13 16  1  0  0  0  0
 13 19  1  0  0  0  0
  6 14  1  0  0  0  0
 14 15  2  0  0  0  0
  4 15  1  0  0  0  0
 16 17  4  0  0  0  0
 16 18  4  0  0  0  0
  2 17  1  0  0  0  0
  8 17  4  0  0  0  0
 10 18  4  0  0  0  0
 12 18  1  0  0  0  0
M  END
$$$$
