A92_351_3L3M
  PyMOL2.6          3D                             0

 45 48  0  0  0  0  0  0  0  0999 V2000
   23.1200    7.5990   24.0440 C   0  0  0  0  0  0  0  0  0  0  0  0
   23.7070   12.3020   23.5630 N   0  0  0  0  0  0  0  0  0  0  0  0
   22.1520   11.1890   22.2410 O   0  0  0  0  0  0  0  0  0  0  0  0
   22.8040    8.7820   23.4140 C   0  0  0  0  0  0  0  0  0  0  0  0
   25.0340   10.8580   25.4660 N   0  0  0  0  0  0  0  0  0  0  0  0
   24.0070    7.5420   25.0950 C   0  0  0  0  0  0  0  0  0  0  0  0
   25.4970    8.9650   26.4760 N   0  0  0  0  0  0  0  0  0  0  0  0
   27.3410   12.9870   28.4090 C   0  0  0  0  0  0  0  0  0  0  0  0
   29.6010   14.4680   29.5490 N   0  3  0  0  0  0  0  0  0  0  0  0
   26.4820   12.3000   27.5780 C   0  0  0  0  0  0  0  0  0  0  0  0
   28.6460   11.0240   28.6900 C   0  0  0  0  0  0  0  0  0  0  0  0
   29.7750   13.6030   32.2360 C   0  0  0  0  0  0  0  0  0  0  0  0
   30.1780   15.0010   31.8350 C   0  0  0  0  0  0  0  0  0  0  0  0
   28.7530   13.0680   31.2650 C   0  0  0  0  0  0  0  0  0  0  0  0
   30.6730   15.0210   30.4090 C   0  0  0  0  0  0  0  0  0  0  0  0
   28.4250   12.3500   28.9680 C   0  0  0  0  0  0  0  0  0  0  0  0
   26.6910   10.9670   27.3020 C   0  0  0  0  0  0  0  0  0  0  0  0
   23.3840    9.9690   23.7940 C   0  0  0  0  0  0  0  0  0  0  0  0
   24.5840    8.7360   25.4850 C   0  0  0  0  0  0  0  0  0  0  0  0
   27.7860   10.3430   27.8630 C   0  0  0  0  0  0  0  0  0  0  0  0
   24.2810    9.9110   24.8340 C   0  0  0  0  0  0  0  0  0  0  0  0
   25.7690   10.2530   26.4470 C   0  0  0  0  0  0  0  0  0  0  0  0
   29.3590   13.0510   29.8860 C   0  0  0  0  0  0  0  0  0  0  0  0
   23.0150   11.2080   23.1100 C   0  0  0  0  0  0  0  0  0  0  0  0
   28.0630    9.0520   27.6280 F   0  0  0  0  0  0  0  0  0  0  0  0
   22.6564    6.6855   23.7021 H   0  0  0  0  0  0  0  0  0  0  0  0
   22.0871    8.7772   22.6063 H   0  0  0  0  0  0  0  0  0  0  0  0
   24.2404    6.6110   25.5901 H   0  0  0  0  0  0  0  0  0  0  0  0
   27.1622   14.0305   28.6224 H   0  0  0  0  0  0  0  0  0  0  0  0
   25.6379   12.8115   27.1396 H   0  0  0  0  0  0  0  0  0  0  0  0
   29.4959   10.5162   29.1214 H   0  0  0  0  0  0  0  0  0  0  0  0
   30.6613   12.9516   32.2284 H   0  0  0  0  0  0  0  0  0  0  0  0
   29.3417   13.6241   33.2468 H   0  0  0  0  0  0  0  0  0  0  0  0
   29.3065   15.6664   31.9232 H   0  0  0  0  0  0  0  0  0  0  0  0
   30.9819   15.3490   32.5003 H   0  0  0  0  0  0  0  0  0  0  0  0
   28.4632   12.0475   31.5558 H   0  0  0  0  0  0  0  0  0  0  0  0
   27.8619   13.7130   31.2710 H   0  0  0  0  0  0  0  0  0  0  0  0
   30.9050   16.0525   30.1053 H   0  0  0  0  0  0  0  0  0  0  0  0
   31.5826   14.4092   30.3174 H   0  0  0  0  0  0  0  0  0  0  0  0
   30.3101   12.5036   29.8101 H   0  0  0  0  0  0  0  0  0  0  0  0
   23.5246   13.2051   23.1743 H   0  0  0  0  0  0  0  0  0  0  0  0
   24.3940   12.1966   24.2820 H   0  0  0  0  0  0  0  0  0  0  0  0
   25.0460   11.8337   25.2473 H   0  0  0  0  0  0  0  0  0  0  0  0
   28.7602   14.9896   29.6939 H   0  0  0  0  0  0  0  0  0  0  0  0
   29.8790   14.5361   28.5908 H   0  0  0  0  0  0  0  0  0  0  0  0
  1  4  4  0  0  0  0
  1  6  4  0  0  0  0
  1 26  1  0  0  0  0
  2 41  1  0  0  0  0
  2 42  1  0  0  0  0
  4 18  4  0  0  0  0
  4 27  1  0  0  0  0
  5 43  1  0  0  0  0
  6 19  4  0  0  0  0
  6 28  1  0  0  0  0
  8 10  4  0  0  0  0
  8 16  4  0  0  0  0
  8 29  1  0  0  0  0
  9 44  1  0  0  0  0
  9 45  1  0  0  0  0
 10 17  4  0  0  0  0
 10 30  1  0  0  0  0
 11 16  4  0  0  0  0
 11 20  4  0  0  0  0
 11 31  1  0  0  0  0
 12 13  1  0  0  0  0
 12 14  1  0  0  0  0
 12 32  1  0  0  0  0
 12 33  1  0  0  0  0
 13 15  1  0  0  0  0
 13 34  1  0  0  0  0
 13 35  1  0  0  0  0
 14 23  1  0  0  0  0
 14 36  1  0  0  0  0
 14 37  1  0  0  0  0
  9 15  1  0  0  0  0
 15 38  1  0  0  0  0
 15 39  1  0  0  0  0
 16 23  1  0  0  0  0
 17 20  4  0  0  0  0
 17 22  1  0  0  0  0
 18 21  4  0  0  0  0
 18 24  1  0  0  0  0
  7 19  1  0  0  0  0
 19 21  4  0  0  0  0
 20 25  1  0  0  0  0
  5 21  1  0  0  0  0
  5 22  1  0  0  0  0
  7 22  2  0  0  0  0
  9 23  1  0  0  0  0
 23 40  1  0  0  0  0
  2 24  1  0  0  0  0
  3 24  2  0  0  0  0
M  END
$$$$
