RS1_1_830C
  PyMOL2.6          3D                             0

 48 50  0  0  0  0  0  0  0  0999 V2000
   -6.8690   25.8010   54.4830 C   0  0  0  0  0  0  0  0  0  0  0  0
   -2.7380   25.5740   56.2570 N   0  0  0  0  0  0  0  0  0  0  0  0
   -2.5310   24.7710   55.1030 O   0  0  0  0  0  0  0  0  0  0  0  0
   -5.5190   28.4130   57.2150 S   0  0  0  0  0  0  0  0  0  0  0  0
   -7.2090   28.0220   53.5770 C   0  0  0  0  0  0  0  0  0  0  0  0
   -2.5940   27.1550   54.7780 O   0  0  0  0  0  0  0  0  0  0  0  0
   -9.4490   26.3890   50.7850 C   0  0  0  0  0  0  0  0  0  0  0  0
   -5.5820   27.5070   58.3390 O   0  0  0  0  0  0  0  0  0  0  0  0
   -7.2200   27.3250   50.5210 C   0  0  0  0  0  0  0  0  0  0  0  0
   -6.2980   29.6010   57.3620 O   0  0  0  0  0  0  0  0  0  0  0  0
   -6.2710   26.3220   55.6000 C   0  0  0  0  0  0  0  0  0  0  0  0
   -0.3120   27.8030   58.7340 O   0  0  0  0  0  0  0  0  0  0  0  0
   -6.6340   28.5470   54.7140 C   0  0  0  0  0  0  0  0  0  0  0  0
   -7.9490   25.9670   52.4690 O   0  0  0  0  0  0  0  0  0  0  0  0
   -9.7960   26.8980   49.5520 C   0  0  0  0  0  0  0  0  0  0  0  0
   -7.5670   27.8520   49.3020 C   0  0  0  0  0  0  0  0  0  0  0  0
   -2.6850   27.4130   58.5200 C   0  0  0  0  0  0  0  0  0  0  0  0
   -1.3990   28.8550   56.8740 C   0  0  0  0  0  0  0  0  0  0  0  0
   -1.3450   26.8280   58.9610 C   0  0  0  0  0  0  0  0  0  0  0  0
   -0.1380   28.1300   57.3600 C   0  0  0  0  0  0  0  0  0  0  0  0
   -3.8780   28.9410   56.7980 C   0  0  0  0  0  0  0  0  0  0  0  0
   -7.3430   26.6340   53.4810 C   0  0  0  0  0  0  0  0  0  0  0  0
   -8.1740   26.5880   51.2560 C   0  0  0  0  0  0  0  0  0  0  0  0
   -6.1960   27.7030   55.7310 C   0  0  0  0  0  0  0  0  0  0  0  0
   -8.8400   27.6210   48.8430 C   0  0  0  0  0  0  0  0  0  0  0  0
   -2.6820   26.8850   55.9850 C   0  0  0  0  0  0  0  0  0  0  0  0
   -2.6760   27.9890   57.0640 C   0  0  0  0  0  0  0  0  0  0  0  0
   -9.3060   28.2050   47.3000 Cl  0  0  0  0  0  0  0  0  0  0  0  0
   -6.9723   24.7307   54.3819 H   0  0  0  0  0  0  0  0  0  0  0  0
   -7.5477   28.6671   52.7798 H   0  0  0  0  0  0  0  0  0  0  0  0
  -10.1701   25.8409   51.3732 H   0  0  0  0  0  0  0  0  0  0  0  0
   -6.2253   27.4729   50.9147 H   0  0  0  0  0  0  0  0  0  0  0  0
   -5.8665   25.6729   56.3625 H   0  0  0  0  0  0  0  0  0  0  0  0
   -6.5228   29.6164   54.8165 H   0  0  0  0  0  0  0  0  0  0  0  0
  -10.7843   26.7401   49.1460 H   0  0  0  0  0  0  0  0  0  0  0  0
   -6.8616   28.4295   48.7229 H   0  0  0  0  0  0  0  0  0  0  0  0
   -3.4376   26.6120   58.5647 H   0  0  0  0  0  0  0  0  0  0  0  0
   -2.9424   28.2314   59.2084 H   0  0  0  0  0  0  0  0  0  0  0  0
   -1.5150   29.7845   57.4508 H   0  0  0  0  0  0  0  0  0  0  0  0
   -1.2839   29.0824   55.8039 H   0  0  0  0  0  0  0  0  0  0  0  0
   -1.3861   26.5750   60.0307 H   0  0  0  0  0  0  0  0  0  0  0  0
   -1.1294   25.9189   58.3804 H   0  0  0  0  0  0  0  0  0  0  0  0
    0.0146   27.2118   56.7737 H   0  0  0  0  0  0  0  0  0  0  0  0
    0.7387   28.7834   57.2394 H   0  0  0  0  0  0  0  0  0  0  0  0
   -3.6876   29.8497   57.3880 H   0  0  0  0  0  0  0  0  0  0  0  0
   -3.8829   29.1357   55.7154 H   0  0  0  0  0  0  0  0  0  0  0  0
   -2.9066   25.2024   57.1699 H   0  0  0  0  0  0  0  0  0  0  0  0
   -2.4447   25.3295   54.3394 H   0  0  0  0  0  0  0  0  0  0  0  0
  1 11  4  0  0  0  0
  1 22  4  0  0  0  0
  1 29  1  0  0  0  0
  2  3  1  0  0  0  0
  2 47  1  0  0  0  0
  3 48  1  0  0  0  0
  5 13  4  0  0  0  0
  5 22  4  0  0  0  0
  5 30  1  0  0  0  0
  7 15  4  0  0  0  0
  7 23  4  0  0  0  0
  7 31  1  0  0  0  0
  4  8  2  0  0  0  0
  9 16  4  0  0  0  0
  9 23  4  0  0  0  0
  9 32  1  0  0  0  0
  4 10  2  0  0  0  0
 11 24  4  0  0  0  0
 11 33  1  0  0  0  0
 13 24  4  0  0  0  0
 13 34  1  0  0  0  0
 15 25  4  0  0  0  0
 15 35  1  0  0  0  0
 16 25  4  0  0  0  0
 16 36  1  0  0  0  0
 17 19  1  0  0  0  0
 17 27  1  0  0  0  0
 17 37  1  0  0  0  0
 17 38  1  0  0  0  0
 18 20  1  0  0  0  0
 18 27  1  0  0  0  0
 18 39  1  0  0  0  0
 18 40  1  0  0  0  0
 12 19  1  0  0  0  0
 19 41  1  0  0  0  0
 19 42  1  0  0  0  0
 12 20  1  0  0  0  0
 20 43  1  0  0  0  0
 20 44  1  0  0  0  0
  4 21  1  0  0  0  0
 21 27  1  0  0  0  0
 21 45  1  0  0  0  0
 21 46  1  0  0  0  0
 14 22  1  0  0  0  0
 14 23  1  0  0  0  0
  4 24  1  0  0  0  0
 25 28  1  0  0  0  0
  2 26  1  0  0  0  0
  6 26  2  0  0  0  0
 26 27  1  0  0  0  0
M  END
$$$$
