NVB_A1133_3LPB
  PyMOL2.6          3D                             0

 56 59  0  0  0  0  0  0  0  0999 V2000
  110.2420   64.6810    6.6980 C   0  0  0  0  0  0  0  0  0  0  0  0
  118.4520   68.2780   10.7980 N   0  0  0  0  0  0  0  0  0  0  0  0
  111.0950   62.6620    8.4100 O   0  0  0  0  0  0  0  0  0  0  0  0
  111.9540   62.7430    7.2580 S   0  0  0  0  0  0  0  0  0  0  0  0
  115.4890   69.4610   16.4860 C   0  0  0  0  0  0  0  0  0  0  0  0
  116.1580   66.8230   10.4690 N   0  0  0  0  0  0  0  0  0  0  0  0
  112.3600   61.5320    6.6270 O   0  0  0  0  0  0  0  0  0  0  0  0
  111.3400   65.8480   11.6450 C   0  0  0  0  0  0  0  0  0  0  0  0
  111.0970   63.6160    6.2030 N   0  0  0  0  0  0  0  0  0  0  0  0
  114.6180   68.3650   16.1720 O   0  0  0  0  0  0  0  0  0  0  0  0
  112.1690   65.9590   16.2470 C   0  0  0  0  0  0  0  0  0  0  0  0
  111.7790   66.2830   12.9670 O   0  0  0  0  0  0  0  0  0  0  0  0
  119.1050   66.8130    7.4980 C   0  0  0  0  0  0  0  0  0  0  0  0
  112.2540   67.2060   15.5110 O   0  0  0  0  0  0  0  0  0  0  0  0
  117.9130   66.0900    7.3280 C   0  0  0  0  0  0  0  0  0  0  0  0
  119.2750   67.5650    8.6720 C   0  0  0  0  0  0  0  0  0  0  0  0
  115.0450   64.5560    9.1440 C   0  0  0  0  0  0  0  0  0  0  0  0
  115.1560   65.2220    6.7890 C   0  0  0  0  0  0  0  0  0  0  0  0
  113.8950   63.8160    8.8730 C   0  0  0  0  0  0  0  0  0  0  0  0
  114.0210   64.4470    6.5110 C   0  0  0  0  0  0  0  0  0  0  0  0
  115.4820   67.9800   13.9050 C   0  0  0  0  0  0  0  0  0  0  0  0
  114.0510   66.9160   12.2940 C   0  0  0  0  0  0  0  0  0  0  0  0
  117.5160   68.2960   11.7660 C   0  0  0  0  0  0  0  0  0  0  0  0
  115.6780   65.2800    8.0970 C   0  0  0  0  0  0  0  0  0  0  0  0
  113.3930   63.7400    7.5650 C   0  0  0  0  0  0  0  0  0  0  0  0
  116.9060   66.0850    8.3270 C   0  0  0  0  0  0  0  0  0  0  0  0
  118.2740   67.5680    9.6660 C   0  0  0  0  0  0  0  0  0  0  0  0
  115.2550   67.5140   12.6070 C   0  0  0  0  0  0  0  0  0  0  0  0
  114.4590   67.8790   14.8820 C   0  0  0  0  0  0  0  0  0  0  0  0
  113.0240   66.8340   13.2520 C   0  0  0  0  0  0  0  0  0  0  0  0
  116.3370   67.5720   11.5870 C   0  0  0  0  0  0  0  0  0  0  0  0
  117.1090   66.8010    9.5090 C   0  0  0  0  0  0  0  0  0  0  0  0
  113.2420   67.3150   14.5460 C   0  0  0  0  0  0  0  0  0  0  0  0
  109.7358   65.1687    5.8519 H   0  0  0  0  0  0  0  0  0  0  0  0
  109.4901   64.2596    7.3814 H   0  0  0  0  0  0  0  0  0  0  0  0
  110.8527   65.4212    7.2358 H   0  0  0  0  0  0  0  0  0  0  0  0
  115.4487   69.6642   17.5663 H   0  0  0  0  0  0  0  0  0  0  0  0
  116.5195   69.2039   16.1997 H   0  0  0  0  0  0  0  0  0  0  0  0
  115.1668   70.3554   15.9326 H   0  0  0  0  0  0  0  0  0  0  0  0
  110.3152   65.4535   11.7098 H   0  0  0  0  0  0  0  0  0  0  0  0
  111.3607   66.7024   10.9524 H   0  0  0  0  0  0  0  0  0  0  0  0
  112.0133   65.0603   11.2760 H   0  0  0  0  0  0  0  0  0  0  0  0
  111.3450   66.0168   16.9734 H   0  0  0  0  0  0  0  0  0  0  0  0
  111.9825   65.1318   15.5463 H   0  0  0  0  0  0  0  0  0  0  0  0
  113.1152   65.7825   16.7795 H   0  0  0  0  0  0  0  0  0  0  0  0
  119.8753   66.7912    6.7413 H   0  0  0  0  0  0  0  0  0  0  0  0
  117.7601   65.5270    6.4191 H   0  0  0  0  0  0  0  0  0  0  0  0
  120.1759   68.1434    8.8144 H   0  0  0  0  0  0  0  0  0  0  0  0
  115.4528   64.5791   10.1438 H   0  0  0  0  0  0  0  0  0  0  0  0
  115.6333   65.7781    5.9957 H   0  0  0  0  0  0  0  0  0  0  0  0
  113.3879   63.2986    9.6740 H   0  0  0  0  0  0  0  0  0  0  0  0
  113.6307   64.3900    5.5056 H   0  0  0  0  0  0  0  0  0  0  0  0
  116.4354   68.4165   14.1637 H   0  0  0  0  0  0  0  0  0  0  0  0
  113.8962   66.5079   11.3061 H   0  0  0  0  0  0  0  0  0  0  0  0
  117.6762   68.8643   12.6703 H   0  0  0  0  0  0  0  0  0  0  0  0
  110.4987   62.9730    5.7249 H   0  0  0  0  0  0  0  0  0  0  0  0
  1  9  1  0  0  0  0
  1 34  1  0  0  0  0
  1 35  1  0  0  0  0
  1 36  1  0  0  0  0
  3  4  2  0  0  0  0
  5 10  1  0  0  0  0
  5 37  1  0  0  0  0
  5 38  1  0  0  0  0
  5 39  1  0  0  0  0
  4  7  2  0  0  0  0
  8 12  1  0  0  0  0
  8 40  1  0  0  0  0
  8 41  1  0  0  0  0
  8 42  1  0  0  0  0
  4  9  1  0  0  0  0
  9 56  1  0  0  0  0
 11 14  1  0  0  0  0
 11 43  1  0  0  0  0
 11 44  1  0  0  0  0
 11 45  1  0  0  0  0
 13 15  4  0  0  0  0
 13 16  4  0  0  0  0
 13 46  1  0  0  0  0
 15 26  4  0  0  0  0
 15 47  1  0  0  0  0
 16 27  4  0  0  0  0
 16 48  1  0  0  0  0
 17 19  4  0  0  0  0
 17 24  4  0  0  0  0
 17 49  1  0  0  0  0
 18 20  4  0  0  0  0
 18 24  4  0  0  0  0
 18 50  1  0  0  0  0
 19 25  4  0  0  0  0
 19 51  1  0  0  0  0
 20 25  4  0  0  0  0
 20 52  1  0  0  0  0
 21 28  4  0  0  0  0
 21 29  4  0  0  0  0
 21 53  1  0  0  0  0
 22 28  4  0  0  0  0
 22 30  4  0  0  0  0
 22 54  1  0  0  0  0
  2 23  4  0  0  0  0
 23 31  4  0  0  0  0
 23 55  1  0  0  0  0
 24 26  1  0  0  0  0
  4 25  1  0  0  0  0
 26 32  4  0  0  0  0
  2 27  4  0  0  0  0
 27 32  4  0  0  0  0
 28 31  1  0  0  0  0
 10 29  1  0  0  0  0
 29 33  4  0  0  0  0
 12 30  1  0  0  0  0
 30 33  4  0  0  0  0
  6 31  4  0  0  0  0
  6 32  4  0  0  0  0
 14 33  1  0  0  0  0
M  END
$$$$
