RA2_468_1B9V
  PyMOL2.6          3D                             0

 50 51  0  0  0  0  0  0  0  0999 V2000
   27.9490  -12.7780   62.9190 C   0  0  0  0  0  0  0  0  0  0  0  0
   30.4840   -9.9330   63.6410 N   0  0  0  0  0  0  0  0  0  0  0  0
   31.7020   -9.4880   60.9290 O   0  0  0  0  0  0  0  0  0  0  0  0
   27.7650   -8.5320   64.3440 C   0  0  0  0  0  0  0  0  0  0  0  0
   32.5210   -8.0310   63.5490 N   0  0  0  0  0  0  0  0  0  0  0  0
   35.1150   -7.1970   63.4350 O   0  0  0  0  0  0  0  0  0  0  0  0
   34.0310  -10.5980   65.8420 C   0  0  0  0  0  0  0  0  0  0  0  0
   32.0780  -13.6760   66.5930 O   0  5  0  0  0  0  0  0  0  0  0  0
   33.8750   -9.4120   65.0710 C   0  0  0  0  0  0  0  0  0  0  0  0
   31.2300   -6.8410   65.0770 O   0  0  0  0  0  0  0  0  0  0  0  0
   31.8140  -11.3380   65.1410 C   0  0  0  0  0  0  0  0  0  0  0  0
   34.1150  -13.0700   67.2850 O   0  0  0  0  0  0  0  0  0  0  0  0
   31.7780   -5.8770   62.9210 C   0  0  0  0  0  0  0  0  0  0  0  0
   32.0960   -6.7030   61.6670 C   0  0  0  0  0  0  0  0  0  0  0  0
   29.2160  -11.9210   62.8880 C   0  0  0  0  0  0  0  0  0  0  0  0
   28.0610   -9.6490   63.3340 C   0  0  0  0  0  0  0  0  0  0  0  0
   33.0290   -9.0750   61.2490 C   0  0  0  0  0  0  0  0  0  0  0  0
   34.5150   -7.2100   62.1450 C   0  0  0  0  0  0  0  0  0  0  0  0
   32.9940  -11.5710   65.8730 C   0  0  0  0  0  0  0  0  0  0  0  0
   32.6830   -9.1850   64.3260 C   0  0  0  0  0  0  0  0  0  0  0  0
   31.6360  -10.1660   64.3690 C   0  0  0  0  0  0  0  0  0  0  0  0
   31.7970   -6.9540   63.9980 C   0  0  0  0  0  0  0  0  0  0  0  0
   29.1840  -10.6300   63.7590 C   0  0  0  0  0  0  0  0  0  0  0  0
   33.1340  -12.8250   66.6530 C   0  0  0  0  0  0  0  0  0  0  0  0
   33.0660   -7.7960   62.1590 C   0  0  0  0  0  0  0  0  0  0  0  0
   28.0845  -13.6572   62.2720 H   0  0  0  0  0  0  0  0  0  0  0  0
   27.7550  -13.1082   63.9502 H   0  0  0  0  0  0  0  0  0  0  0  0
   27.0963  -12.1847   62.5572 H   0  0  0  0  0  0  0  0  0  0  0  0
   26.9592   -7.8910   63.9569 H   0  0  0  0  0  0  0  0  0  0  0  0
   27.4524   -8.9762   65.3005 H   0  0  0  0  0  0  0  0  0  0  0  0
   28.6713   -7.9282   64.4987 H   0  0  0  0  0  0  0  0  0  0  0  0
   34.9386  -10.7595   66.4047 H   0  0  0  0  0  0  0  0  0  0  0  0
   34.6672   -8.6782   65.0508 H   0  0  0  0  0  0  0  0  0  0  0  0
   31.0238  -12.0736   65.1697 H   0  0  0  0  0  0  0  0  0  0  0  0
   32.5249   -5.0904   63.1036 H   0  0  0  0  0  0  0  0  0  0  0  0
   30.8032   -5.3719   62.8525 H   0  0  0  0  0  0  0  0  0  0  0  0
   31.1833   -7.1450   61.2409 H   0  0  0  0  0  0  0  0  0  0  0  0
   32.5616   -6.0801   60.8890 H   0  0  0  0  0  0  0  0  0  0  0  0
   30.0442  -12.5450   63.2550 H   0  0  0  0  0  0  0  0  0  0  0  0
   29.3776  -11.6104   61.8452 H   0  0  0  0  0  0  0  0  0  0  0  0
   27.1386  -10.2333   63.2009 H   0  0  0  0  0  0  0  0  0  0  0  0
   28.3700   -9.1745   62.3909 H   0  0  0  0  0  0  0  0  0  0  0  0
   33.5572   -8.8485   60.3111 H   0  0  0  0  0  0  0  0  0  0  0  0
   33.5279   -9.8961   61.7846 H   0  0  0  0  0  0  0  0  0  0  0  0
   35.1341   -7.8304   61.4803 H   0  0  0  0  0  0  0  0  0  0  0  0
   34.4677   -6.1757   61.7736 H   0  0  0  0  0  0  0  0  0  0  0  0
   28.9857  -10.9419   64.7950 H   0  0  0  0  0  0  0  0  0  0  0  0
   30.2626   -8.9790   63.8433 H   0  0  0  0  0  0  0  0  0  0  0  0
   31.7347  -10.2621   60.3793 H   0  0  0  0  0  0  0  0  0  0  0  0
   35.9906   -6.8336   63.3738 H   0  0  0  0  0  0  0  0  0  0  0  0
  1 15  1  0  0  0  0
  1 26  1  0  0  0  0
  1 27  1  0  0  0  0
  1 28  1  0  0  0  0
  2 48  1  0  0  0  0
  3 49  1  0  0  0  0
  4 16  1  0  0  0  0
  4 29  1  0  0  0  0
  4 30  1  0  0  0  0
  4 31  1  0  0  0  0
  6 50  1  0  0  0  0
  7  9  4  0  0  0  0
  7 19  4  0  0  0  0
  7 32  1  0  0  0  0
  9 20  4  0  0  0  0
  9 33  1  0  0  0  0
 11 19  4  0  0  0  0
 11 21  4  0  0  0  0
 11 34  1  0  0  0  0
 13 14  1  0  0  0  0
 13 22  1  0  0  0  0
 13 35  1  0  0  0  0
 13 36  1  0  0  0  0
 14 25  1  0  0  0  0
 14 37  1  0  0  0  0
 14 38  1  0  0  0  0
 15 23  1  0  0  0  0
 15 39  1  0  0  0  0
 15 40  1  0  0  0  0
 16 23  1  0  0  0  0
 16 41  1  0  0  0  0
 16 42  1  0  0  0  0
  3 17  1  0  0  0  0
 17 25  1  0  0  0  0
 17 43  1  0  0  0  0
 17 44  1  0  0  0  0
  6 18  1  0  0  0  0
 18 25  1  0  0  0  0
 18 45  1  0  0  0  0
 18 46  1  0  0  0  0
 19 24  1  0  0  0  0
  5 20  1  0  0  0  0
 20 21  4  0  0  0  0
  2 21  1  0  0  0  0
  5 22  1  0  0  0  0
 10 22  2  0  0  0  0
  2 23  1  0  0  0  0
 23 47  1  0  0  0  0
  8 24  1  0  0  0  0
 12 24  2  0  0  0  0
  5 25  1  0  0  0  0
M  END
$$$$
