KIQ_901_2I78
  PyMOL2.6          3D                             0

 49 52  0  0  0  0  0  0  0  0999 V2000
  -14.2170   -6.5360   57.9740 C   0  0  0  0  0  0  0  0  0  0  0  0
  -14.4730   -7.0730   61.5970 N   0  3  0  0  0  0  0  0  0  0  0  0
  -19.4220   -7.9040   62.2380 O   0  0  0  0  0  0  0  0  0  0  0  0
  -12.1940   -4.7730   58.6730 C   0  0  0  0  0  0  0  0  0  0  0  0
  -24.1220   -6.0360   62.1010 N   0  0  0  0  0  0  0  0  0  0  0  0
  -21.4930   -4.1640   60.4370 C   0  0  0  0  0  0  0  0  0  0  0  0
  -24.9170   -5.2260   61.2760 N   0  0  0  0  0  0  0  0  0  0  0  0
  -20.3200   -4.5200   61.3530 C   0  0  0  0  0  0  0  0  0  0  0  0
  -22.7440   -4.7440   60.9390 N   0  0  0  0  0  0  0  0  0  0  0  0
  -16.8650   -5.7630   58.9570 C   0  0  0  0  0  0  0  0  0  0  0  0
  -20.3920   -5.9180   61.8220 N   0  0  0  0  0  0  0  0  0  0  0  0
  -21.6180   -6.3260   62.5190 C   0  0  0  0  0  0  0  0  0  0  0  0
  -16.8440   -6.6380   61.8040 C   0  0  0  0  0  0  0  0  0  0  0  0
  -18.1340   -5.9920   59.7540 C   0  0  0  0  0  0  0  0  0  0  0  0
  -14.3920   -5.6880   59.0670 C   0  0  0  0  0  0  0  0  0  0  0  0
  -13.0330   -6.4970   57.2420 C   0  0  0  0  0  0  0  0  0  0  0  0
  -13.3710   -4.8180   59.4060 C   0  0  0  0  0  0  0  0  0  0  0  0
  -12.0170   -5.6250   57.5840 C   0  0  0  0  0  0  0  0  0  0  0  0
  -22.8210   -5.7130   61.8680 C   0  0  0  0  0  0  0  0  0  0  0  0
  -24.0170   -4.4850   60.6140 C   0  0  0  0  0  0  0  0  0  0  0  0
  -15.6410   -5.7070   59.8670 C   0  0  0  0  0  0  0  0  0  0  0  0
  -15.6920   -6.8860   60.8410 C   0  0  0  0  0  0  0  0  0  0  0  0
  -18.1330   -6.4410   61.0340 C   0  0  0  0  0  0  0  0  0  0  0  0
  -19.3750   -6.7940   61.7260 C   0  0  0  0  0  0  0  0  0  0  0  0
  -24.4780   -3.4630   59.6160 C   0  0  0  0  0  0  0  0  0  0  0  0
  -12.8630   -7.3060   56.1900 F   0  0  0  0  0  0  0  0  0  0  0  0
  -13.5090   -4.0080   60.4530 F   0  0  0  0  0  0  0  0  0  0  0  0
  -10.8680   -5.6140   56.8660 F   0  0  0  0  0  0  0  0  0  0  0  0
  -25.7320   -3.1950   59.9180 F   0  0  0  0  0  0  0  0  0  0  0  0
  -23.7790   -2.3390   59.7030 F   0  0  0  0  0  0  0  0  0  0  0  0
  -24.4150   -3.9670   58.3890 F   0  0  0  0  0  0  0  0  0  0  0  0
  -15.0011   -7.2242   57.6947 H   0  0  0  0  0  0  0  0  0  0  0  0
  -11.4143   -4.0774   58.9463 H   0  0  0  0  0  0  0  0  0  0  0  0
  -21.5965   -3.0696   60.3967 H   0  0  0  0  0  0  0  0  0  0  0  0
  -21.2938   -4.5593   59.4300 H   0  0  0  0  0  0  0  0  0  0  0  0
  -19.3826   -4.3841   60.7937 H   0  0  0  0  0  0  0  0  0  0  0  0
  -20.3416   -3.8536   62.2279 H   0  0  0  0  0  0  0  0  0  0  0  0
  -16.7395   -6.5901   58.2427 H   0  0  0  0  0  0  0  0  0  0  0  0
  -16.9512   -4.8082   58.4177 H   0  0  0  0  0  0  0  0  0  0  0  0
  -21.5654   -5.9924   63.5659 H   0  0  0  0  0  0  0  0  0  0  0  0
  -21.7066   -7.4218   62.4808 H   0  0  0  0  0  0  0  0  0  0  0  0
  -16.9501   -7.5043   62.4736 H   0  0  0  0  0  0  0  0  0  0  0  0
  -16.6337   -5.7354   62.3965 H   0  0  0  0  0  0  0  0  0  0  0  0
  -19.0831   -5.7882   59.2806 H   0  0  0  0  0  0  0  0  0  0  0  0
  -15.6489   -4.7755   60.4521 H   0  0  0  0  0  0  0  0  0  0  0  0
  -15.8278   -7.8032   60.2492 H   0  0  0  0  0  0  0  0  0  0  0  0
  -13.7123   -7.2364   60.9688 H   0  0  0  0  0  0  0  0  0  0  0  0
  -14.2876   -6.2530   62.1385 H   0  0  0  0  0  0  0  0  0  0  0  0
  -14.5763   -7.8589   62.2067 H   0  0  0  0  0  0  0  0  0  0  0  0
  1 15  4  0  0  0  0
  1 16  4  0  0  0  0
  1 32  1  0  0  0  0
  2 47  1  0  0  0  0
  2 48  1  0  0  0  0
  2 49  1  0  0  0  0
  4 17  4  0  0  0  0
  4 18  4  0  0  0  0
  4 33  1  0  0  0  0
  5  7  1  0  0  0  0
  6  8  1  0  0  0  0
  6  9  1  0  0  0  0
  6 34  1  0  0  0  0
  6 35  1  0  0  0  0
  8 11  1  0  0  0  0
  8 36  1  0  0  0  0
  8 37  1  0  0  0  0
 10 14  1  0  0  0  0
 10 21  1  0  0  0  0
 10 38  1  0  0  0  0
 10 39  1  0  0  0  0
 11 12  1  0  0  0  0
 12 19  1  0  0  0  0
 12 40  1  0  0  0  0
 12 41  1  0  0  0  0
 13 22  1  0  0  0  0
 13 23  1  0  0  0  0
 13 42  1  0  0  0  0
 13 43  1  0  0  0  0
 14 23  2  0  0  0  0
 14 44  1  0  0  0  0
 15 17  4  0  0  0  0
 15 21  1  0  0  0  0
 16 18  4  0  0  0  0
 16 26  1  0  0  0  0
 17 27  1  0  0  0  0
 18 28  1  0  0  0  0
  5 19  2  0  0  0  0
  9 19  1  0  0  0  0
  7 20  2  0  0  0  0
  9 20  1  0  0  0  0
 20 25  1  0  0  0  0
 21 22  1  0  0  0  0
 21 45  1  0  0  0  0
  2 22  1  0  0  0  0
 22 46  1  0  0  0  0
 23 24  1  0  0  0  0
  3 24  2  0  0  0  0
 11 24  1  0  0  0  0
 25 29  1  0  0  0  0
 25 30  1  0  0  0  0
 25 31  1  0  0  0  0
M  END
$$$$
