FMS_500_1BCD
  PyMOL2.6          3D                             0

 10  9  0  0  0  0  0  0  0  0999 V2000
   -6.5640    1.6460   17.4020 C   0  0  0  0  0  0  0  0  0  0  0  0
   -5.1990   -0.4760   16.1990 N   0  0  0  0  0  0  0  0  0  0  0  0
   -3.9940    1.5610   16.8260 O   0  0  0  0  0  0  0  0  0  0  0  0
   -5.2870    1.1360   16.3120 S   0  0  0  0  0  0  0  0  0  0  0  0
   -5.6450    1.7270   15.0180 O   0  0  0  0  0  0  0  0  0  0  0  0
   -7.6990    1.3040   16.9150 F   0  0  0  0  0  0  0  0  0  0  0  0
   -6.5680    3.0110   17.3310 F   0  0  0  0  0  0  0  0  0  0  0  0
   -6.3360    1.1890   18.5890 F   0  0  0  0  0  0  0  0  0  0  0  0
   -4.4622   -0.7269   15.5711 H   0  0  0  0  0  0  0  0  0  0  0  0
   -5.0137   -0.8637   17.1020 H   0  0  0  0  0  0  0  0  0  0  0  0
  1  4  1  0  0  0  0
  1  6  1  0  0  0  0
  1  7  1  0  0  0  0
  1  8  1  0  0  0  0
  2  4  1  0  0  0  0
  2  9  1  0  0  0  0
  2 10  1  0  0  0  0
  3  4  2  0  0  0  0
  4  5  2  0  0  0  0
M  END
$$$$
