BRE_397_1D3G
  PyMOL2.6          3D                             0

 42 45  0  0  0  0  0  0  0  0999 V2000
   50.0330   43.3060   -5.2500 C   0  0  0  0  0  0  0  0  0  0  0  0
   49.9670   41.9490   -1.7270 N   0  0  0  0  0  0  0  0  0  0  0  0
   49.1690   40.4600   -6.3790 O   0  5  0  0  0  0  0  0  0  0  0  0
   56.1860   48.5320   -0.6530 C   0  0  0  0  0  0  0  0  0  0  0  0
   47.1710   41.2320   -5.8680 O   0  0  0  0  0  0  0  0  0  0  0  0
   55.6780   47.6130    0.2470 C   0  0  0  0  0  0  0  0  0  0  0  0
   55.6390   48.6290   -1.9150 C   0  0  0  0  0  0  0  0  0  0  0  0
   54.6510   46.7710   -0.1480 C   0  0  0  0  0  0  0  0  0  0  0  0
   54.6160   47.7880   -2.3290 C   0  0  0  0  0  0  0  0  0  0  0  0
   53.1650   45.0550   -2.9440 C   0  0  0  0  0  0  0  0  0  0  0  0
   51.8860   45.6300   -1.0000 C   0  0  0  0  0  0  0  0  0  0  0  0
   52.2830   44.0620   -3.3090 C   0  0  0  0  0  0  0  0  0  0  0  0
   50.9840   44.6410   -1.3570 C   0  0  0  0  0  0  0  0  0  0  0  0
   47.8720   39.1670   -0.7230 C   0  0  0  0  0  0  0  0  0  0  0  0
   48.7810   40.2100   -0.6860 C   0  0  0  0  0  0  0  0  0  0  0  0
   47.5990   39.5560   -3.0780 C   0  0  0  0  0  0  0  0  0  0  0  0
   49.7120   42.4580   -4.0370 C   0  0  0  0  0  0  0  0  0  0  0  0
   54.0720   46.8850   -1.4230 C   0  0  0  0  0  0  0  0  0  0  0  0
   52.9960   45.8600   -1.8290 C   0  0  0  0  0  0  0  0  0  0  0  0
   51.1700   43.8720   -2.4830 C   0  0  0  0  0  0  0  0  0  0  0  0
   47.2690   38.8550   -1.9320 C   0  0  0  0  0  0  0  0  0  0  0  0
   49.1130   40.9190   -1.8360 C   0  0  0  0  0  0  0  0  0  0  0  0
   48.5240   40.5940   -3.0520 C   0  0  0  0  0  0  0  0  0  0  0  0
   48.8510   41.3720   -4.1630 C   0  0  0  0  0  0  0  0  0  0  0  0
   50.2340   42.7540   -2.7920 C   0  0  0  0  0  0  0  0  0  0  0  0
   48.2990   41.0310   -5.5210 C   0  0  0  0  0  0  0  0  0  0  0  0
   46.3970   37.9740   -1.9620 F   0  0  0  0  0  0  0  0  0  0  0  0
   49.2969   44.1190   -5.3349 H   0  0  0  0  0  0  0  0  0  0  0  0
   51.0407   43.7337   -5.1419 H   0  0  0  0  0  0  0  0  0  0  0  0
   49.9948   42.6812   -6.1545 H   0  0  0  0  0  0  0  0  0  0  0  0
   57.0084   49.1716   -0.3683 H   0  0  0  0  0  0  0  0  0  0  0  0
   56.0781   47.5522    1.2483 H   0  0  0  0  0  0  0  0  0  0  0  0
   56.0156   49.3769   -2.5970 H   0  0  0  0  0  0  0  0  0  0  0  0
   54.2901   46.0157    0.5345 H   0  0  0  0  0  0  0  0  0  0  0  0
   54.2469   47.8344   -3.3429 H   0  0  0  0  0  0  0  0  0  0  0  0
   54.0367   45.2150   -3.5612 H   0  0  0  0  0  0  0  0  0  0  0  0
   51.7386   46.2123   -0.1024 H   0  0  0  0  0  0  0  0  0  0  0  0
   52.4430   43.4590   -4.1906 H   0  0  0  0  0  0  0  0  0  0  0  0
   50.1157   44.4697   -0.7380 H   0  0  0  0  0  0  0  0  0  0  0  0
   47.6373   38.6080    0.1708 H   0  0  0  0  0  0  0  0  0  0  0  0
   49.2413   40.4786    0.2534 H   0  0  0  0  0  0  0  0  0  0  0  0
   47.1280   39.2914   -4.0132 H   0  0  0  0  0  0  0  0  0  0  0  0
  1 17  1  0  0  0  0
  1 28  1  0  0  0  0
  1 29  1  0  0  0  0
  1 30  1  0  0  0  0
  4  6  4  0  0  0  0
  4  7  4  0  0  0  0
  4 31  1  0  0  0  0
  6  8  4  0  0  0  0
  6 32  1  0  0  0  0
  7  9  4  0  0  0  0
  7 33  1  0  0  0  0
  8 18  4  0  0  0  0
  8 34  1  0  0  0  0
  9 18  4  0  0  0  0
  9 35  1  0  0  0  0
 10 12  4  0  0  0  0
 10 19  4  0  0  0  0
 10 36  1  0  0  0  0
 11 13  4  0  0  0  0
 11 19  4  0  0  0  0
 11 37  1  0  0  0  0
 12 20  4  0  0  0  0
 12 38  1  0  0  0  0
 13 20  4  0  0  0  0
 13 39  1  0  0  0  0
 14 15  4  0  0  0  0
 14 21  4  0  0  0  0
 14 40  1  0  0  0  0
 15 22  4  0  0  0  0
 15 41  1  0  0  0  0
 16 21  4  0  0  0  0
 16 23  4  0  0  0  0
 16 42  1  0  0  0  0
 17 24  4  0  0  0  0
 17 25  4  0  0  0  0
 18 19  1  0  0  0  0
 20 25  1  0  0  0  0
 21 27  1  0  0  0  0
  2 22  4  0  0  0  0
 22 23  4  0  0  0  0
 23 24  4  0  0  0  0
 24 26  1  0  0  0  0
  2 25  4  0  0  0  0
  3 26  1  0  0  0  0
  5 26  2  0  0  0  0
M  END
$$$$
