SUB_201_1J4H
  PyMOL2.6          3D                             0

 60 62  0  0  0  0  0  0  0  0999 V2000
  -31.7900   45.2960   33.7970 C   0  0  0  0  0  0  0  0  0  0  0  0
  -34.5150   39.0560   32.6350 N   0  0  0  0  0  0  0  0  0  0  0  0
  -35.8130   41.2860   32.3430 O   0  0  0  0  0  0  0  0  0  0  0  0
  -38.6960   39.6760   32.6280 S   0  0  0  0  0  0  0  0  0  0  0  0
  -32.2770   33.0530   30.6480 C   0  0  0  0  0  0  0  0  0  0  0  0
  -36.7040   37.8210   31.1070 N   0  0  0  0  0  0  0  0  0  0  0  0
  -32.2730   41.0210   31.9540 O   0  0  0  0  0  0  0  0  0  0  0  0
  -36.5860   37.2930   29.4710 S   0  0  0  0  0  0  0  0  0  0  0  0
  -35.3940   35.2490   34.7090 C   0  0  0  0  0  0  0  0  0  0  0  0
  -36.2430   38.2380   28.4390 O   0  0  0  0  0  0  0  0  0  0  0  0
  -34.3560   35.4900   33.7060 C   0  0  0  0  0  0  0  0  0  0  0  0
  -37.7980   36.4120   29.5800 O   0  0  0  0  0  0  0  0  0  0  0  0
  -35.6240   36.2480   35.7470 C   0  0  0  0  0  0  0  0  0  0  0  0
  -32.7650   42.4710   34.0890 O   0  0  0  0  0  0  0  0  0  0  0  0
  -33.5520   36.7180   33.7510 C   0  0  0  0  0  0  0  0  0  0  0  0
  -34.8220   37.4420   35.7710 C   0  0  0  0  0  0  0  0  0  0  0  0
  -34.7880   33.7410   30.3580 C   0  0  0  0  0  0  0  0  0  0  0  0
  -32.9580   35.4100   30.0530 C   0  0  0  0  0  0  0  0  0  0  0  0
  -35.7610   34.7560   30.0760 C   0  0  0  0  0  0  0  0  0  0  0  0
  -33.9640   36.4310   29.7670 C   0  0  0  0  0  0  0  0  0  0  0  0
  -37.3890   37.6300   32.3800 C   0  0  0  0  0  0  0  0  0  0  0  0
  -38.7940   38.1420   32.4040 C   0  0  0  0  0  0  0  0  0  0  0  0
  -38.0220   40.0570   31.1130 C   0  0  0  0  0  0  0  0  0  0  0  0
  -31.9220   43.7000   33.5740 C   0  0  0  0  0  0  0  0  0  0  0  0
  -32.9450   39.0340   34.9280 C   0  0  0  0  0  0  0  0  0  0  0  0
  -33.3500   34.0810   30.3470 C   0  0  0  0  0  0  0  0  0  0  0  0
  -33.7890   37.7220   34.8100 C   0  0  0  0  0  0  0  0  0  0  0  0
  -35.3380   36.1030   29.7820 C   0  0  0  0  0  0  0  0  0  0  0  0
  -36.4580   39.3720   30.9750 C   0  0  0  0  0  0  0  0  0  0  0  0
  -33.6240   39.7710   33.5780 C   0  0  0  0  0  0  0  0  0  0  0  0
  -35.5290   39.8570   31.9630 C   0  0  0  0  0  0  0  0  0  0  0  0
  -33.0090   41.1180   33.4290 C   0  0  0  0  0  0  0  0  0  0  0  0
  -30.9960   45.6931   33.1474 H   0  0  0  0  0  0  0  0  0  0  0  0
  -32.7450   45.7812   33.5469 H   0  0  0  0  0  0  0  0  0  0  0  0
  -31.5393   45.4996   34.8485 H   0  0  0  0  0  0  0  0  0  0  0  0
  -31.9652   32.5633   29.7137 H   0  0  0  0  0  0  0  0  0  0  0  0
  -31.4106   33.5513   31.1074 H   0  0  0  0  0  0  0  0  0  0  0  0
  -32.6766   32.2985   31.3416 H   0  0  0  0  0  0  0  0  0  0  0  0
  -35.9820   34.3435   34.6812 H   0  0  0  0  0  0  0  0  0  0  0  0
  -34.1804   34.7610   32.9287 H   0  0  0  0  0  0  0  0  0  0  0  0
  -36.3905   36.0923   36.4917 H   0  0  0  0  0  0  0  0  0  0  0  0
  -32.7860   36.8881   33.0089 H   0  0  0  0  0  0  0  0  0  0  0  0
  -35.0050   38.1659   36.5513 H   0  0  0  0  0  0  0  0  0  0  0  0
  -35.1049   32.7322   30.5775 H   0  0  0  0  0  0  0  0  0  0  0  0
  -31.9099   35.6703   30.0401 H   0  0  0  0  0  0  0  0  0  0  0  0
  -36.8128   34.5111   30.0838 H   0  0  0  0  0  0  0  0  0  0  0  0
  -33.6553   37.4414   29.5430 H   0  0  0  0  0  0  0  0  0  0  0  0
  -36.8203   38.1661   33.1540 H   0  0  0  0  0  0  0  0  0  0  0  0
  -37.4186   36.5506   32.5896 H   0  0  0  0  0  0  0  0  0  0  0  0
  -39.3009   37.9226   31.4527 H   0  0  0  0  0  0  0  0  0  0  0  0
  -39.3632   37.6688   33.2177 H   0  0  0  0  0  0  0  0  0  0  0  0
  -37.9495   41.1500   31.0127 H   0  0  0  0  0  0  0  0  0  0  0  0
  -38.6661   39.6539   30.3176 H   0  0  0  0  0  0  0  0  0  0  0  0
  -32.1684   43.6715   32.5023 H   0  0  0  0  0  0  0  0  0  0  0  0
  -30.9101   43.3776   33.8607 H   0  0  0  0  0  0  0  0  0  0  0  0
  -33.0857   39.5853   35.8694 H   0  0  0  0  0  0  0  0  0  0  0  0
  -31.8568   38.8847   34.8688 H   0  0  0  0  0  0  0  0  0  0  0  0
  -35.9829   39.6493   30.0224 H   0  0  0  0  0  0  0  0  0  0  0  0
  -34.6729   39.8485   33.2557 H   0  0  0  0  0  0  0  0  0  0  0  0
  -34.4249   38.0741   32.4684 H   0  0  0  0  0  0  0  0  0  0  0  0
  1 24  1  0  0  0  0
  1 33  1  0  0  0  0
  1 34  1  0  0  0  0
  1 35  1  0  0  0  0
  2 60  1  0  0  0  0
  5 26  1  0  0  0  0
  5 36  1  0  0  0  0
  5 37  1  0  0  0  0
  5 38  1  0  0  0  0
  6  8  1  0  0  0  0
  9 11  4  0  0  0  0
  9 13  4  0  0  0  0
  9 39  1  0  0  0  0
  8 10  2  0  0  0  0
 11 15  4  0  0  0  0
 11 40  1  0  0  0  0
  8 12  2  0  0  0  0
 13 16  4  0  0  0  0
 13 41  1  0  0  0  0
 15 27  4  0  0  0  0
 15 42  1  0  0  0  0
 16 27  4  0  0  0  0
 16 43  1  0  0  0  0
 17 19  4  0  0  0  0
 17 26  4  0  0  0  0
 17 44  1  0  0  0  0
 18 20  4  0  0  0  0
 18 26  4  0  0  0  0
 18 45  1  0  0  0  0
 19 28  4  0  0  0  0
 19 46  1  0  0  0  0
 20 28  4  0  0  0  0
 20 47  1  0  0  0  0
  6 21  1  0  0  0  0
 21 22  1  0  0  0  0
 21 48  1  0  0  0  0
 21 49  1  0  0  0  0
  4 22  1  0  0  0  0
 22 50  1  0  0  0  0
 22 51  1  0  0  0  0
  4 23  1  0  0  0  0
 23 29  1  0  0  0  0
 23 52  1  0  0  0  0
 23 53  1  0  0  0  0
 14 24  1  0  0  0  0
 24 54  1  0  0  0  0
 24 55  1  0  0  0  0
 25 27  1  0  0  0  0
 25 30  1  0  0  0  0
 25 56  1  0  0  0  0
 25 57  1  0  0  0  0
  8 28  1  0  0  0  0
  6 29  1  0  0  0  0
 29 31  1  0  0  0  0
 29 58  1  0  0  0  0
  2 30  1  0  0  0  0
 30 32  1  0  0  0  0
 30 59  1  0  0  0  0
  2 31  1  0  0  0  0
  3 31  2  0  0  0  0
  7 32  2  0  0  0  0
 14 32  1  0  0  0  0
M  END
$$$$
